/*---------------------------------------------------------------------------*\
  =========                 |
  \\      /  F ield         | OpenFOAM: The Open Source CFD Toolbox
   \\    /   O peration     | Website:  https://openfoam.org
    \\  /    A nd           | Version:  7
     \\/     M anipulation  |
\*---------------------------------------------------------------------------*/
Build  : 7-49b2b3b8b082
Exec   : icoFoam
Date   : Mar 03 2021
Time   : 11:53:16
Host   : "c402-022.stampede2.tacc.utexas.edu"
PID    : 124686
I/O    : uncollated
Case   : /work/06798/steinjd/stampede2/coe-347/cavity
nProcs : 1
sigFpe : Enabling floating point exception trapping (FOAM_SIGFPE).
fileModificationChecking : Monitoring run-time modified files using timeStampMaster (fileModificationSkew 10)
allowSystemOperations : Allowing user-supplied system call operations

// * * * * * * * * * * * * * * * * * * * * * * * * * * * * * * * * * * * * * //
Create time

Create mesh for time = 0

Reading transportProperties

Reading field p

Reading field U

Reading/calculating face flux field phi


Starting time loop

Time = 0.000625

Courant Number mean: 0 max: 0
smoothSolver:  Solving for Ux, Initial residual = 1, Final residual = 9.96156e-06, No Iterations 125
smoothSolver:  Solving for Uy, Initial residual = 0, Final residual = 0, No Iterations 0
DICPCG:  Solving for p, Initial residual = 1, Final residual = 0.0475287, No Iterations 199
time step continuity errors : sum local = 1.47447e-05, global = -2.55909e-20, cumulative = -2.55909e-20
DICPCG:  Solving for p, Initial residual = 0.712662, Final residual = 8.16001e-07, No Iterations 283
time step continuity errors : sum local = 3.69873e-10, global = -2.60882e-20, cumulative = -5.16791e-20
ExecutionTime = 2.12 s  ClockTime = 2 s

Time = 0.00125

Courant Number mean: 0.0491385 max: 0.849466
smoothSolver:  Solving for Ux, Initial residual = 0.107717, Final residual = 9.7712e-06, No Iterations 133
smoothSolver:  Solving for Uy, Initial residual = 0.428628, Final residual = 9.93445e-06, No Iterations 157
DICPCG:  Solving for p, Initial residual = 0.842748, Final residual = 0.0414233, No Iterations 97
time step continuity errors : sum local = 3.10373e-05, global = 7.39086e-20, cumulative = 2.22295e-20
DICPCG:  Solving for p, Initial residual = 0.785201, Final residual = 8.98568e-07, No Iterations 279
time step continuity errors : sum local = 6.42021e-10, global = 4.36392e-20, cumulative = 6.58688e-20
ExecutionTime = 3.71 s  ClockTime = 4 s

Time = 0.001875

Courant Number mean: 0.0748073 max: 0.96555
smoothSolver:  Solving for Ux, Initial residual = 0.0615617, Final residual = 9.50192e-06, No Iterations 120
smoothSolver:  Solving for Uy, Initial residual = 0.290162, Final residual = 9.52664e-06, No Iterations 146
DICPCG:  Solving for p, Initial residual = 0.903605, Final residual = 0.0429137, No Iterations 187
time step continuity errors : sum local = 4.44433e-05, global = 7.65142e-21, cumulative = 7.35202e-20
DICPCG:  Solving for p, Initial residual = 0.628386, Final residual = 9.42604e-07, No Iterations 270
time step continuity errors : sum local = 1.35022e-09, global = -1.48727e-20, cumulative = 5.86475e-20
ExecutionTime = 5.37 s  ClockTime = 6 s

Time = 0.0025

Courant Number mean: 0.0891351 max: 0.94579
smoothSolver:  Solving for Ux, Initial residual = 0.0491702, Final residual = 9.85162e-06, No Iterations 119
smoothSolver:  Solving for Uy, Initial residual = 0.219628, Final residual = 9.75328e-06, No Iterations 140
DICPCG:  Solving for p, Initial residual = 0.883859, Final residual = 0.0407209, No Iterations 176
time step continuity errors : sum local = 4.60275e-05, global = 5.00742e-20, cumulative = 1.08722e-19
DICPCG:  Solving for p, Initial residual = 0.685799, Final residual = 9.77593e-07, No Iterations 274
time step continuity errors : sum local = 1.36518e-09, global = -1.22605e-20, cumulative = 9.64611e-20
ExecutionTime = 7.01 s  ClockTime = 7 s

Time = 0.003125

Courant Number mean: 0.1009 max: 0.966522
smoothSolver:  Solving for Ux, Initial residual = 0.0397413, Final residual = 9.59552e-06, No Iterations 115
smoothSolver:  Solving for Uy, Initial residual = 0.192266, Final residual = 9.44434e-06, No Iterations 144
DICPCG:  Solving for p, Initial residual = 0.904273, Final residual = 0.0421253, No Iterations 181
time step continuity errors : sum local = 4.59353e-05, global = -3.26219e-20, cumulative = 6.38392e-20
DICPCG:  Solving for p, Initial residual = 0.74466, Final residual = 8.57524e-07, No Iterations 273
time step continuity errors : sum local = 1.09652e-09, global = -4.15916e-20, cumulative = 2.22476e-20
ExecutionTime = 8.71 s  ClockTime = 9 s

Time = 0.00375

Courant Number mean: 0.109965 max: 0.960133
smoothSolver:  Solving for Ux, Initial residual = 0.0345915, Final residual = 9.67353e-06, No Iterations 119
smoothSolver:  Solving for Uy, Initial residual = 0.147129, Final residual = 9.62353e-06, No Iterations 136
DICPCG:  Solving for p, Initial residual = 0.863471, Final residual = 0.0403067, No Iterations 184
time step continuity errors : sum local = 3.98603e-05, global = -2.22408e-20, cumulative = 6.74508e-24
DICPCG:  Solving for p, Initial residual = 0.680461, Final residual = 8.5164e-07, No Iterations 271
time step continuity errors : sum local = 1.02649e-09, global = -6.54184e-20, cumulative = -6.54117e-20
ExecutionTime = 10.34 s  ClockTime = 11 s

Time = 0.004375

Courant Number mean: 0.118155 max: 0.970956
smoothSolver:  Solving for Ux, Initial residual = 0.0269589, Final residual = 9.3847e-06, No Iterations 109
smoothSolver:  Solving for Uy, Initial residual = 0.12069, Final residual = 9.77046e-06, No Iterations 134
DICPCG:  Solving for p, Initial residual = 0.878325, Final residual = 0.0435967, No Iterations 171
time step continuity errors : sum local = 3.8485e-05, global = 8.20873e-20, cumulative = 1.66756e-20
DICPCG:  Solving for p, Initial residual = 0.739754, Final residual = 9.71365e-07, No Iterations 268
time step continuity errors : sum local = 9.77309e-10, global = 4.78765e-20, cumulative = 6.45521e-20
ExecutionTime = 11.97 s  ClockTime = 12 s

Time = 0.005

Courant Number mean: 0.12466 max: 0.964495
smoothSolver:  Solving for Ux, Initial residual = 0.0301491, Final residual = 9.86528e-06, No Iterations 120
smoothSolver:  Solving for Uy, Initial residual = 0.100576, Final residual = 9.60485e-06, No Iterations 130
DICPCG:  Solving for p, Initial residual = 0.842806, Final residual = 0.0409736, No Iterations 178
time step continuity errors : sum local = 3.51358e-05, global = -2.56516e-20, cumulative = 3.89005e-20
DICPCG:  Solving for p, Initial residual = 0.686488, Final residual = 9.38971e-07, No Iterations 271
time step continuity errors : sum local = 9.57636e-10, global = -2.17631e-20, cumulative = 1.71374e-20
ExecutionTime = 13.62 s  ClockTime = 14 s

Time = 0.005625

Courant Number mean: 0.13087 max: 0.969344
smoothSolver:  Solving for Ux, Initial residual = 0.021956, Final residual = 9.4513e-06, No Iterations 107
smoothSolver:  Solving for Uy, Initial residual = 0.0936988, Final residual = 9.58629e-06, No Iterations 132
DICPCG:  Solving for p, Initial residual = 0.852452, Final residual = 0.0398314, No Iterations 159
time step continuity errors : sum local = 2.98221e-05, global = -1.8989e-20, cumulative = -1.85161e-21
DICPCG:  Solving for p, Initial residual = 0.73496, Final residual = 9.21954e-07, No Iterations 272
time step continuity errors : sum local = 7.65061e-10, global = -6.47719e-20, cumulative = -6.66235e-20
ExecutionTime = 15.16 s  ClockTime = 15 s

Time = 0.00625

Courant Number mean: 0.136082 max: 0.968325
smoothSolver:  Solving for Ux, Initial residual = 0.0167311, Final residual = 9.63669e-06, No Iterations 104
smoothSolver:  Solving for Uy, Initial residual = 0.122826, Final residual = 9.98176e-06, No Iterations 145
DICPCG:  Solving for p, Initial residual = 0.817267, Final residual = 0.038973, No Iterations 165
time step continuity errors : sum local = 2.87064e-05, global = -1.13537e-20, cumulative = -7.79772e-20
DICPCG:  Solving for p, Initial residual = 0.704349, Final residual = 9.8926e-07, No Iterations 270
time step continuity errors : sum local = 8.09554e-10, global = -3.59295e-20, cumulative = -1.13907e-19
ExecutionTime = 16.78 s  ClockTime = 17 s

Time = 0.006875

Courant Number mean: 0.140906 max: 0.969737
smoothSolver:  Solving for Ux, Initial residual = 0.0146003, Final residual = 9.44321e-06, No Iterations 103
smoothSolver:  Solving for Uy, Initial residual = 0.076633, Final residual = 9.74518e-06, No Iterations 131
DICPCG:  Solving for p, Initial residual = 0.814262, Final residual = 0.0403838, No Iterations 173
time step continuity errors : sum local = 2.58664e-05, global = -1.11101e-19, cumulative = -2.25007e-19
DICPCG:  Solving for p, Initial residual = 0.701873, Final residual = 9.13774e-07, No Iterations 267
time step continuity errors : sum local = 6.51133e-10, global = -1.05542e-19, cumulative = -3.30549e-19
ExecutionTime = 18.38 s  ClockTime = 19 s

Time = 0.0075

Courant Number mean: 0.145493 max: 0.97194
smoothSolver:  Solving for Ux, Initial residual = 0.0168299, Final residual = 9.66919e-06, No Iterations 111
smoothSolver:  Solving for Uy, Initial residual = 0.0512686, Final residual = 9.67664e-06, No Iterations 120
DICPCG:  Solving for p, Initial residual = 0.763686, Final residual = 0.0372184, No Iterations 180
time step continuity errors : sum local = 2.11396e-05, global = -8.84256e-20, cumulative = -4.18975e-19
DICPCG:  Solving for p, Initial residual = 0.638655, Final residual = 9.64055e-07, No Iterations 264
time step continuity errors : sum local = 6.27396e-10, global = 8.0397e-21, cumulative = -4.10935e-19
ExecutionTime = 19.97 s  ClockTime = 20 s

Time = 0.008125

Courant Number mean: 0.149611 max: 0.975591
smoothSolver:  Solving for Ux, Initial residual = 0.0129668, Final residual = 9.79054e-06, No Iterations 102
smoothSolver:  Solving for Uy, Initial residual = 0.0499775, Final residual = 9.87973e-06, No Iterations 122
DICPCG:  Solving for p, Initial residual = 0.769031, Final residual = 0.0366538, No Iterations 176
time step continuity errors : sum local = 1.96194e-05, global = 3.93376e-20, cumulative = -3.71597e-19
DICPCG:  Solving for p, Initial residual = 0.682148, Final residual = 8.66581e-07, No Iterations 273
time step continuity errors : sum local = 5.02491e-10, global = -3.89229e-20, cumulative = -4.1052e-19
ExecutionTime = 21.49 s  ClockTime = 22 s

Time = 0.00875

Courant Number mean: 0.153281 max: 0.970349
smoothSolver:  Solving for Ux, Initial residual = 0.0134949, Final residual = 9.99062e-06, No Iterations 107
smoothSolver:  Solving for Uy, Initial residual = 0.0380116, Final residual = 9.51071e-06, No Iterations 114
DICPCG:  Solving for p, Initial residual = 0.724242, Final residual = 0.0320597, No Iterations 185
time step continuity errors : sum local = 1.5651e-05, global = 4.37973e-20, cumulative = -3.66723e-19
DICPCG:  Solving for p, Initial residual = 0.619611, Final residual = 9.70068e-07, No Iterations 270
time step continuity errors : sum local = 5.32161e-10, global = -5.65845e-20, cumulative = -4.23308e-19
ExecutionTime = 23.08 s  ClockTime = 23 s

Time = 0.009375

Courant Number mean: 0.156731 max: 0.974703
smoothSolver:  Solving for Ux, Initial residual = 0.00894347, Final residual = 9.36589e-06, No Iterations 96
smoothSolver:  Solving for Uy, Initial residual = 0.0345014, Final residual = 9.81028e-06, No Iterations 117
DICPCG:  Solving for p, Initial residual = 0.680341, Final residual = 0.0325894, No Iterations 154
time step continuity errors : sum local = 1.31192e-05, global = -3.44934e-20, cumulative = -4.57801e-19
DICPCG:  Solving for p, Initial residual = 0.605626, Final residual = 7.98334e-07, No Iterations 271
time step continuity errors : sum local = 3.42901e-10, global = 1.00666e-19, cumulative = -3.57135e-19
ExecutionTime = 24.59 s  ClockTime = 25 s

Time = 0.01

Courant Number mean: 0.159927 max: 0.973021
smoothSolver:  Solving for Ux, Initial residual = 0.013816, Final residual = 9.49559e-06, No Iterations 113
smoothSolver:  Solving for Uy, Initial residual = 0.0294495, Final residual = 9.81611e-06, No Iterations 118
DICPCG:  Solving for p, Initial residual = 0.663468, Final residual = 0.0330256, No Iterations 176
time step continuity errors : sum local = 1.32632e-05, global = -1.21885e-19, cumulative = -4.7902e-19
DICPCG:  Solving for p, Initial residual = 0.563528, Final residual = 9.60203e-07, No Iterations 268
time step continuity errors : sum local = 4.34949e-10, global = -2.53105e-20, cumulative = -5.04331e-19
ExecutionTime = 26.18 s  ClockTime = 26 s

Time = 0.010625

Courant Number mean: 0.163199 max: 0.979838
smoothSolver:  Solving for Ux, Initial residual = 0.00898447, Final residual = 9.94212e-06, No Iterations 95
smoothSolver:  Solving for Uy, Initial residual = 0.0259057, Final residual = 9.83165e-06, No Iterations 115
DICPCG:  Solving for p, Initial residual = 0.652745, Final residual = 0.0325973, No Iterations 174
time step continuity errors : sum local = 1.24915e-05, global = 8.2698e-20, cumulative = -4.21633e-19
DICPCG:  Solving for p, Initial residual = 0.580259, Final residual = 8.6315e-07, No Iterations 271
time step continuity errors : sum local = 3.57638e-10, global = -9.16416e-21, cumulative = -4.30797e-19
ExecutionTime = 27.65 s  ClockTime = 28 s

Time = 0.01125

Courant Number mean: 0.165823 max: 0.973004
smoothSolver:  Solving for Ux, Initial residual = 0.00722035, Final residual = 9.69564e-06, No Iterations 95
smoothSolver:  Solving for Uy, Initial residual = 0.0311332, Final residual = 9.97482e-06, No Iterations 120
DICPCG:  Solving for p, Initial residual = 0.640445, Final residual = 0.0316395, No Iterations 91
time step continuity errors : sum local = 1.40468e-05, global = 9.71162e-20, cumulative = -3.33681e-19
DICPCG:  Solving for p, Initial residual = 0.614377, Final residual = 7.83862e-07, No Iterations 272
time step continuity errors : sum local = 2.96921e-10, global = 2.61227e-19, cumulative = -7.2454e-20
ExecutionTime = 29.06 s  ClockTime = 29 s

Time = 0.011875

Courant Number mean: 0.168555 max: 0.977587
smoothSolver:  Solving for Ux, Initial residual = 0.0175579, Final residual = 9.97522e-06, No Iterations 112
smoothSolver:  Solving for Uy, Initial residual = 0.0749848, Final residual = 9.98847e-06, No Iterations 136
DICPCG:  Solving for p, Initial residual = 0.695663, Final residual = 0.0320893, No Iterations 186
time step continuity errors : sum local = 1.57271e-05, global = -3.31855e-20, cumulative = -1.05639e-19
DICPCG:  Solving for p, Initial residual = 0.340338, Final residual = 9.33028e-07, No Iterations 268
time step continuity errors : sum local = 9.02239e-10, global = 1.46598e-21, cumulative = -1.04173e-19
ExecutionTime = 30.71 s  ClockTime = 31 s

Time = 0.0125

Courant Number mean: 0.171633 max: 0.974241
smoothSolver:  Solving for Ux, Initial residual = 0.0151731, Final residual = 9.7955e-06, No Iterations 103
smoothSolver:  Solving for Uy, Initial residual = 0.054524, Final residual = 9.68844e-06, No Iterations 120
DICPCG:  Solving for p, Initial residual = 0.703787, Final residual = 0.0343604, No Iterations 156
time step continuity errors : sum local = 1.70371e-05, global = -1.44979e-19, cumulative = -2.49152e-19
DICPCG:  Solving for p, Initial residual = 0.446077, Final residual = 8.88279e-07, No Iterations 254
time step continuity errors : sum local = 6.65603e-10, global = 1.66595e-20, cumulative = -2.32493e-19
ExecutionTime = 32.81 s  ClockTime = 33 s

Time = 0.013125

Courant Number mean: 0.173504 max: 0.97756
smoothSolver:  Solving for Ux, Initial residual = 0.01011, Final residual = 9.75808e-06, No Iterations 97
smoothSolver:  Solving for Uy, Initial residual = 0.0770675, Final residual = 9.46396e-06, No Iterations 139
DICPCG:  Solving for p, Initial residual = 0.716039, Final residual = 0.0340006, No Iterations 176
time step continuity errors : sum local = 1.74885e-05, global = -6.06298e-20, cumulative = -2.93123e-19
DICPCG:  Solving for p, Initial residual = 0.501143, Final residual = 9.15318e-07, No Iterations 265
time step continuity errors : sum local = 6.47075e-10, global = 5.75699e-20, cumulative = -2.35553e-19
ExecutionTime = 34.34 s  ClockTime = 35 s

Time = 0.01375

Courant Number mean: 0.175729 max: 0.976827
smoothSolver:  Solving for Ux, Initial residual = 0.00883627, Final residual = 9.9179e-06, No Iterations 97
smoothSolver:  Solving for Uy, Initial residual = 0.0432039, Final residual = 9.86565e-06, No Iterations 119
DICPCG:  Solving for p, Initial residual = 0.706248, Final residual = 0.0345057, No Iterations 164
time step continuity errors : sum local = 1.69317e-05, global = -8.11154e-20, cumulative = -3.16668e-19
DICPCG:  Solving for p, Initial residual = 0.543971, Final residual = 8.8674e-07, No Iterations 272
time step continuity errors : sum local = 5.44544e-10, global = 1.61194e-20, cumulative = -3.00549e-19
ExecutionTime = 35.88 s  ClockTime = 36 s

Time = 0.014375

Courant Number mean: 0.177668 max: 0.978414
smoothSolver:  Solving for Ux, Initial residual = 0.0125716, Final residual = 9.94566e-06, No Iterations 107
smoothSolver:  Solving for Uy, Initial residual = 0.0318379, Final residual = 9.91976e-06, No Iterations 117
DICPCG:  Solving for p, Initial residual = 0.679925, Final residual = 0.0318167, No Iterations 176
time step continuity errors : sum local = 1.41435e-05, global = 5.34746e-20, cumulative = -2.47074e-19
DICPCG:  Solving for p, Initial residual = 0.519699, Final residual = 9.82903e-07, No Iterations 268
time step continuity errors : sum local = 5.45233e-10, global = -1.49163e-19, cumulative = -3.96237e-19
ExecutionTime = 37.43 s  ClockTime = 38 s

Time = 0.015

Courant Number mean: 0.179338 max: 0.972004
smoothSolver:  Solving for Ux, Initial residual = 0.00710407, Final residual = 9.68258e-06, No Iterations 88
smoothSolver:  Solving for Uy, Initial residual = 0.03865, Final residual = 9.56336e-06, No Iterations 123
DICPCG:  Solving for p, Initial residual = 0.671293, Final residual = 0.0314527, No Iterations 160
time step continuity errors : sum local = 1.36524e-05, global = 5.0365e-20, cumulative = -3.45872e-19
DICPCG:  Solving for p, Initial residual = 0.551231, Final residual = 9.98187e-07, No Iterations 267
time step continuity errors : sum local = 5.06173e-10, global = -1.30147e-19, cumulative = -4.76019e-19
ExecutionTime = 38.93 s  ClockTime = 39 s

Time = 0.015625

Courant Number mean: 0.181347 max: 0.981122
smoothSolver:  Solving for Ux, Initial residual = 0.00992247, Final residual = 9.47376e-06, No Iterations 105
smoothSolver:  Solving for Uy, Initial residual = 0.0269222, Final residual = 9.7609e-06, No Iterations 115
DICPCG:  Solving for p, Initial residual = 0.646989, Final residual = 0.0265027, No Iterations 174
time step continuity errors : sum local = 1.05652e-05, global = 6.85629e-20, cumulative = -4.07456e-19
DICPCG:  Solving for p, Initial residual = 0.542112, Final residual = 8.55382e-07, No Iterations 263
time step continuity errors : sum local = 3.90119e-10, global = 8.51396e-21, cumulative = -3.98942e-19
ExecutionTime = 40.41 s  ClockTime = 41 s

Time = 0.01625

Courant Number mean: 0.182972 max: 0.973675
smoothSolver:  Solving for Ux, Initial residual = 0.00604154, Final residual = 9.45396e-06, No Iterations 90
smoothSolver:  Solving for Uy, Initial residual = 0.0233472, Final residual = 9.85835e-06, No Iterations 113
DICPCG:  Solving for p, Initial residual = 0.588221, Final residual = 0.0265928, No Iterations 177
time step continuity errors : sum local = 9.11491e-06, global = 1.4117e-21, cumulative = -3.9753e-19
DICPCG:  Solving for p, Initial residual = 0.494367, Final residual = 9.04916e-07, No Iterations 270
time step continuity errors : sum local = 3.54974e-10, global = -1.13534e-20, cumulative = -4.08884e-19
ExecutionTime = 41.91 s  ClockTime = 42 s

Time = 0.016875

Courant Number mean: 0.184755 max: 0.97936
smoothSolver:  Solving for Ux, Initial residual = 0.00492475, Final residual = 9.76416e-06, No Iterations 88
smoothSolver:  Solving for Uy, Initial residual = 0.0164835, Final residual = 9.71886e-06, No Iterations 106
DICPCG:  Solving for p, Initial residual = 0.548782, Final residual = 0.0243855, No Iterations 155
time step continuity errors : sum local = 7.55056e-06, global = 4.36764e-20, cumulative = -3.65207e-19
DICPCG:  Solving for p, Initial residual = 0.469774, Final residual = 9.33104e-07, No Iterations 265
time step continuity errors : sum local = 3.22504e-10, global = 6.59317e-20, cumulative = -2.99275e-19
ExecutionTime = 43.34 s  ClockTime = 44 s

Time = 0.0175

Courant Number mean: 0.186342 max: 0.977164
smoothSolver:  Solving for Ux, Initial residual = 0.00513018, Final residual = 9.45783e-06, No Iterations 94
smoothSolver:  Solving for Uy, Initial residual = 0.0138048, Final residual = 9.40615e-06, No Iterations 106
DICPCG:  Solving for p, Initial residual = 0.497565, Final residual = 0.0230277, No Iterations 178
time step continuity errors : sum local = 6.46134e-06, global = -6.70341e-20, cumulative = -3.6631e-19
DICPCG:  Solving for p, Initial residual = 0.447689, Final residual = 9.32258e-07, No Iterations 264
time step continuity errors : sum local = 2.7663e-10, global = -4.77093e-20, cumulative = -4.14019e-19
ExecutionTime = 44.81 s  ClockTime = 45 s

Time = 0.018125

Courant Number mean: 0.187925 max: 0.978888
smoothSolver:  Solving for Ux, Initial residual = 0.00384792, Final residual = 9.96494e-06, No Iterations 85
smoothSolver:  Solving for Uy, Initial residual = 0.0114497, Final residual = 9.42169e-06, No Iterations 100
DICPCG:  Solving for p, Initial residual = 0.482151, Final residual = 0.0205643, No Iterations 90
time step continuity errors : sum local = 6.31341e-06, global = 1.2074e-19, cumulative = -2.93279e-19
DICPCG:  Solving for p, Initial residual = 0.462457, Final residual = 9.69846e-07, No Iterations 264
time step continuity errors : sum local = 2.61216e-10, global = -4.75347e-20, cumulative = -3.40814e-19
ExecutionTime = 46.03 s  ClockTime = 46 s

Time = 0.01875

Courant Number mean: 0.189327 max: 0.977466
smoothSolver:  Solving for Ux, Initial residual = 0.00783042, Final residual = 9.69662e-06, No Iterations 101
smoothSolver:  Solving for Uy, Initial residual = 0.0244278, Final residual = 9.92158e-06, No Iterations 118
DICPCG:  Solving for p, Initial residual = 0.507588, Final residual = 0.0252766, No Iterations 164
time step continuity errors : sum local = 7.5117e-06, global = 1.06705e-19, cumulative = -2.34109e-19
DICPCG:  Solving for p, Initial residual = 0.296181, Final residual = 9.7513e-07, No Iterations 267
time step continuity errors : sum local = 4.79793e-10, global = 4.84698e-20, cumulative = -1.85639e-19
ExecutionTime = 47.55 s  ClockTime = 48 s

Time = 0.019375

Courant Number mean: 0.190919 max: 0.97904
smoothSolver:  Solving for Ux, Initial residual = 0.00649824, Final residual = 9.77591e-06, No Iterations 92
smoothSolver:  Solving for Uy, Initial residual = 0.0296993, Final residual = 9.69961e-06, No Iterations 120
DICPCG:  Solving for p, Initial residual = 0.528633, Final residual = 0.0251906, No Iterations 178
time step continuity errors : sum local = 7.74331e-06, global = -1.84267e-19, cumulative = -3.69906e-19
DICPCG:  Solving for p, Initial residual = 0.376655, Final residual = 9.33973e-07, No Iterations 265
time step continuity errors : sum local = 3.88444e-10, global = -3.90497e-20, cumulative = -4.08956e-19
ExecutionTime = 49.08 s  ClockTime = 49 s

Time = 0.02

Courant Number mean: 0.192222 max: 0.979863
smoothSolver:  Solving for Ux, Initial residual = 0.00530511, Final residual = 9.6076e-06, No Iterations 90
smoothSolver:  Solving for Uy, Initial residual = 0.0190819, Final residual = 9.47659e-06, No Iterations 107
DICPCG:  Solving for p, Initial residual = 0.54423, Final residual = 0.0259646, No Iterations 183
time step continuity errors : sum local = 8.17443e-06, global = -3.90644e-20, cumulative = -4.4802e-19
DICPCG:  Solving for p, Initial residual = 0.433931, Final residual = 9.93776e-07, No Iterations 270
time step continuity errors : sum local = 3.80313e-10, global = -1.21957e-19, cumulative = -5.69977e-19
ExecutionTime = 50.56 s  ClockTime = 51 s

Time = 0.020625

Courant Number mean: 0.193439 max: 0.979611
smoothSolver:  Solving for Ux, Initial residual = 0.00407701, Final residual = 9.7433e-06, No Iterations 84
smoothSolver:  Solving for Uy, Initial residual = 0.0151225, Final residual = 9.6637e-06, No Iterations 105
DICPCG:  Solving for p, Initial residual = 0.50554, Final residual = 0.0251304, No Iterations 151
time step continuity errors : sum local = 7.29748e-06, global = 1.11177e-19, cumulative = -4.588e-19
DICPCG:  Solving for p, Initial residual = 0.40552, Final residual = 9.31982e-07, No Iterations 258
time step continuity errors : sum local = 3.21825e-10, global = -2.99664e-20, cumulative = -4.88766e-19
ExecutionTime = 51.89 s  ClockTime = 52 s

Time = 0.02125

Courant Number mean: 0.194609 max: 0.978376
smoothSolver:  Solving for Ux, Initial residual = 0.00395047, Final residual = 9.89029e-06, No Iterations 87
smoothSolver:  Solving for Uy, Initial residual = 0.0249792, Final residual = 9.452e-06, No Iterations 122
DICPCG:  Solving for p, Initial residual = 0.515709, Final residual = 0.0232238, No Iterations 174
time step continuity errors : sum local = 6.81324e-06, global = -3.43991e-20, cumulative = -5.23165e-19
DICPCG:  Solving for p, Initial residual = 0.41089, Final residual = 9.61777e-07, No Iterations 262
time step continuity errors : sum local = 3.41086e-10, global = -2.48732e-20, cumulative = -5.48039e-19
ExecutionTime = 53.4 s  ClockTime = 54 s

Time = 0.021875

Courant Number mean: 0.195781 max: 0.980199
smoothSolver:  Solving for Ux, Initial residual = 0.00351455, Final residual = 9.84419e-06, No Iterations 84
smoothSolver:  Solving for Uy, Initial residual = 0.0150884, Final residual = 9.99456e-06, No Iterations 106
DICPCG:  Solving for p, Initial residual = 0.475005, Final residual = 0.0230538, No Iterations 167
time step continuity errors : sum local = 6.25083e-06, global = 8.61024e-20, cumulative = -4.61936e-19
DICPCG:  Solving for p, Initial residual = 0.418216, Final residual = 9.63921e-07, No Iterations 262
time step continuity errors : sum local = 2.85507e-10, global = 6.47209e-20, cumulative = -3.97215e-19
ExecutionTime = 54.82 s  ClockTime = 55 s

Time = 0.0225

Courant Number mean: 0.196851 max: 0.978697
smoothSolver:  Solving for Ux, Initial residual = 0.00498133, Final residual = 9.61297e-06, No Iterations 95
smoothSolver:  Solving for Uy, Initial residual = 0.00838102, Final residual = 9.67224e-06, No Iterations 93
DICPCG:  Solving for p, Initial residual = 0.467184, Final residual = 0.0222366, No Iterations 184
time step continuity errors : sum local = 5.94652e-06, global = 1.4475e-20, cumulative = -3.8274e-19
DICPCG:  Solving for p, Initial residual = 0.393005, Final residual = 9.41275e-07, No Iterations 261
time step continuity errors : sum local = 2.88498e-10, global = -5.56695e-20, cumulative = -4.3841e-19
ExecutionTime = 56.27 s  ClockTime = 57 s

Time = 0.023125

Courant Number mean: 0.197958 max: 0.980115
smoothSolver:  Solving for Ux, Initial residual = 0.00282498, Final residual = 9.79954e-06, No Iterations 78
smoothSolver:  Solving for Uy, Initial residual = 0.00733605, Final residual = 9.70963e-06, No Iterations 96
DICPCG:  Solving for p, Initial residual = 0.411011, Final residual = 0.0203614, No Iterations 155
time step continuity errors : sum local = 4.933e-06, global = 9.89179e-20, cumulative = -3.39492e-19
DICPCG:  Solving for p, Initial residual = 0.367039, Final residual = 9.31957e-07, No Iterations 268
time step continuity errors : sum local = 2.40882e-10, global = 4.00214e-20, cumulative = -2.9947e-19
ExecutionTime = 57.57 s  ClockTime = 58 s

Time = 0.02375

Courant Number mean: 0.198924 max: 0.979638
smoothSolver:  Solving for Ux, Initial residual = 0.00314041, Final residual = 9.47954e-06, No Iterations 87
smoothSolver:  Solving for Uy, Initial residual = 0.0123216, Final residual = 9.52706e-06, No Iterations 111
DICPCG:  Solving for p, Initial residual = 0.388977, Final residual = 0.0186221, No Iterations 180
time step continuity errors : sum local = 4.3484e-06, global = 5.93173e-20, cumulative = -2.40153e-19
DICPCG:  Solving for p, Initial residual = 0.328038, Final residual = 9.15013e-07, No Iterations 266
time step continuity errors : sum local = 2.43035e-10, global = -6.46019e-20, cumulative = -3.04755e-19
ExecutionTime = 59.04 s  ClockTime = 59 s

Time = 0.024375

Courant Number mean: 0.199868 max: 0.978688
smoothSolver:  Solving for Ux, Initial residual = 0.00167017, Final residual = 9.48185e-06, No Iterations 69
smoothSolver:  Solving for Uy, Initial residual = 0.00852055, Final residual = 9.78215e-06, No Iterations 98
DICPCG:  Solving for p, Initial residual = 0.350156, Final residual = 0.0161804, No Iterations 156
time step continuity errors : sum local = 3.52505e-06, global = 4.44958e-20, cumulative = -2.60259e-19
DICPCG:  Solving for p, Initial residual = 0.321384, Final residual = 9.88622e-07, No Iterations 262
time step continuity errors : sum local = 2.25523e-10, global = 1.38393e-19, cumulative = -1.21866e-19
ExecutionTime = 60.37 s  ClockTime = 61 s

Time = 0.025

Courant Number mean: 0.200814 max: 0.980244
smoothSolver:  Solving for Ux, Initial residual = 0.00278157, Final residual = 9.72922e-06, No Iterations 87
smoothSolver:  Solving for Uy, Initial residual = 0.00626048, Final residual = 9.57147e-06, No Iterations 97
DICPCG:  Solving for p, Initial residual = 0.318463, Final residual = 0.0144012, No Iterations 176
time step continuity errors : sum local = 2.99636e-06, global = -7.19376e-20, cumulative = -1.93804e-19
DICPCG:  Solving for p, Initial residual = 0.291127, Final residual = 8.20589e-07, No Iterations 261
time step continuity errors : sum local = 1.79273e-10, global = 8.45985e-20, cumulative = -1.09205e-19
ExecutionTime = 62.37 s  ClockTime = 63 s

Time = 0.025625

Courant Number mean: 0.201741 max: 0.980405
smoothSolver:  Solving for Ux, Initial residual = 0.00197305, Final residual = 9.84776e-06, No Iterations 75
smoothSolver:  Solving for Uy, Initial residual = 0.00500401, Final residual = 9.64814e-06, No Iterations 91
DICPCG:  Solving for p, Initial residual = 0.262926, Final residual = 0.0126943, No Iterations 182
time step continuity errors : sum local = 2.43552e-06, global = -7.46944e-20, cumulative = -1.839e-19
DICPCG:  Solving for p, Initial residual = 0.241026, Final residual = 8.42399e-07, No Iterations 257
time step continuity errors : sum local = 1.68778e-10, global = -1.37642e-20, cumulative = -1.97664e-19
ExecutionTime = 63.68 s  ClockTime = 64 s

Time = 0.02625

Courant Number mean: 0.202571 max: 0.9795
smoothSolver:  Solving for Ux, Initial residual = 0.00155962, Final residual = 9.87024e-06, No Iterations 74
smoothSolver:  Solving for Uy, Initial residual = 0.00461715, Final residual = 9.46624e-06, No Iterations 91
DICPCG:  Solving for p, Initial residual = 0.219519, Final residual = 0.0109094, No Iterations 150
time step continuity errors : sum local = 1.98533e-06, global = -4.07315e-20, cumulative = -2.38396e-19
DICPCG:  Solving for p, Initial residual = 0.200181, Final residual = 9.66889e-07, No Iterations 259
time step continuity errors : sum local = 1.83016e-10, global = 1.61405e-20, cumulative = -2.22255e-19
ExecutionTime = 64.98 s  ClockTime = 65 s

Time = 0.026875

Courant Number mean: 0.203398 max: 0.979887
smoothSolver:  Solving for Ux, Initial residual = 0.00137295, Final residual = 9.54084e-06, No Iterations 73
smoothSolver:  Solving for Uy, Initial residual = 0.00402343, Final residual = 9.50603e-06, No Iterations 89
DICPCG:  Solving for p, Initial residual = 0.205097, Final residual = 0.00959618, No Iterations 87
time step continuity errors : sum local = 1.96362e-06, global = 6.95601e-20, cumulative = -1.52695e-19
DICPCG:  Solving for p, Initial residual = 0.196871, Final residual = 9.84069e-07, No Iterations 252
time step continuity errors : sum local = 1.75817e-10, global = -8.26163e-20, cumulative = -2.35311e-19
ExecutionTime = 66.22 s  ClockTime = 67 s

Time = 0.0275

Courant Number mean: 0.204178 max: 0.980074
smoothSolver:  Solving for Ux, Initial residual = 0.00251625, Final residual = 9.43387e-06, No Iterations 84
smoothSolver:  Solving for Uy, Initial residual = 0.00741926, Final residual = 9.60536e-06, No Iterations 100
DICPCG:  Solving for p, Initial residual = 0.233781, Final residual = 0.0107275, No Iterations 186
time step continuity errors : sum local = 2.01266e-06, global = -2.9036e-20, cumulative = -2.64347e-19
DICPCG:  Solving for p, Initial residual = 0.17245, Final residual = 9.08292e-07, No Iterations 263
time step continuity errors : sum local = 2.23476e-10, global = -1.08329e-19, cumulative = -3.72676e-19
ExecutionTime = 67.67 s  ClockTime = 68 s

Time = 0.028125

Courant Number mean: 0.204977 max: 0.979993
smoothSolver:  Solving for Ux, Initial residual = 0.00193672, Final residual = 9.94418e-06, No Iterations 72
smoothSolver:  Solving for Uy, Initial residual = 0.00705938, Final residual = 9.87318e-06, No Iterations 94
DICPCG:  Solving for p, Initial residual = 0.230635, Final residual = 0.011227, No Iterations 156
time step continuity errors : sum local = 2.09967e-06, global = 1.7095e-19, cumulative = -2.01726e-19
DICPCG:  Solving for p, Initial residual = 0.188692, Final residual = 8.75086e-07, No Iterations 263
time step continuity errors : sum local = 1.90768e-10, global = -1.49601e-20, cumulative = -2.16686e-19
ExecutionTime = 68.94 s  ClockTime = 69 s

Time = 0.02875

Courant Number mean: 0.205695 max: 0.980205
smoothSolver:  Solving for Ux, Initial residual = 0.00150365, Final residual = 9.65572e-06, No Iterations 71
smoothSolver:  Solving for Uy, Initial residual = 0.00733425, Final residual = 9.928e-06, No Iterations 100
DICPCG:  Solving for p, Initial residual = 0.239549, Final residual = 0.0105643, No Iterations 180
time step continuity errors : sum local = 1.98885e-06, global = -1.22695e-19, cumulative = -3.39382e-19
DICPCG:  Solving for p, Initial residual = 0.202879, Final residual = 8.91934e-07, No Iterations 262
time step continuity errors : sum local = 1.90029e-10, global = -1.50071e-19, cumulative = -4.89453e-19
ExecutionTime = 70.32 s  ClockTime = 71 s

Time = 0.029375

Courant Number mean: 0.20639 max: 0.980208
smoothSolver:  Solving for Ux, Initial residual = 0.0013397, Final residual = 9.86145e-06, No Iterations 70
smoothSolver:  Solving for Uy, Initial residual = 0.00476263, Final residual = 9.9951e-06, No Iterations 88
DICPCG:  Solving for p, Initial residual = 0.218664, Final residual = 0.00993583, No Iterations 161
time step continuity errors : sum local = 1.82082e-06, global = 2.6166e-20, cumulative = -4.63287e-19
DICPCG:  Solving for p, Initial residual = 0.194231, Final residual = 9.94308e-07, No Iterations 262
time step continuity errors : sum local = 1.95477e-10, global = 2.1069e-20, cumulative = -4.42218e-19
ExecutionTime = 71.62 s  ClockTime = 72 s

Time = 0.03

Courant Number mean: 0.207062 max: 0.980279
smoothSolver:  Solving for Ux, Initial residual = 0.00196048, Final residual = 9.69094e-06, No Iterations 81
smoothSolver:  Solving for Uy, Initial residual = 0.00331959, Final residual = 9.44882e-06, No Iterations 84
DICPCG:  Solving for p, Initial residual = 0.213085, Final residual = 0.00890835, No Iterations 174
time step continuity errors : sum local = 1.61356e-06, global = 6.42887e-20, cumulative = -3.77929e-19
DICPCG:  Solving for p, Initial residual = 0.188538, Final residual = 8.04446e-07, No Iterations 259
time step continuity errors : sum local = 1.58074e-10, global = -1.90461e-20, cumulative = -3.96975e-19
ExecutionTime = 72.97 s  ClockTime = 73 s

Time = 0.030625

Courant Number mean: 0.207729 max: 0.980625
smoothSolver:  Solving for Ux, Initial residual = 0.00124898, Final residual = 9.75117e-06, No Iterations 67
smoothSolver:  Solving for Uy, Initial residual = 0.00347403, Final residual = 9.64109e-06, No Iterations 87
DICPCG:  Solving for p, Initial residual = 0.174482, Final residual = 0.00846345, No Iterations 162
time step continuity errors : sum local = 1.46348e-06, global = 7.72121e-21, cumulative = -3.89254e-19
DICPCG:  Solving for p, Initial residual = 0.159772, Final residual = 8.98792e-07, No Iterations 260
time step continuity errors : sum local = 1.61227e-10, global = -1.01148e-19, cumulative = -4.90402e-19
ExecutionTime = 74.21 s  ClockTime = 75 s

Time = 0.03125

Courant Number mean: 0.208341 max: 0.980361
smoothSolver:  Solving for Ux, Initial residual = 0.00082013, Final residual = 9.47659e-06, No Iterations 61
smoothSolver:  Solving for Uy, Initial residual = 0.00440475, Final residual = 9.54115e-06, No Iterations 93
DICPCG:  Solving for p, Initial residual = 0.167432, Final residual = 0.00751596, No Iterations 89
time step continuity errors : sum local = 1.52485e-06, global = -1.08092e-19, cumulative = -5.98494e-19
DICPCG:  Solving for p, Initial residual = 0.160556, Final residual = 9.62663e-07, No Iterations 256
time step continuity errors : sum local = 1.64164e-10, global = 5.9052e-20, cumulative = -5.39442e-19
ExecutionTime = 75.35 s  ClockTime = 76 s

Time = 0.031875

Courant Number mean: 0.208956 max: 0.980675
smoothSolver:  Solving for Ux, Initial residual = 0.00204911, Final residual = 9.43029e-06, No Iterations 79
smoothSolver:  Solving for Uy, Initial residual = 0.00726881, Final residual = 9.65343e-06, No Iterations 99
DICPCG:  Solving for p, Initial residual = 0.220505, Final residual = 0.0107691, No Iterations 165
time step continuity errors : sum local = 1.97819e-06, global = -9.64615e-20, cumulative = -6.35904e-19
DICPCG:  Solving for p, Initial residual = 0.16296, Final residual = 8.46177e-07, No Iterations 263
time step continuity errors : sum local = 2.04947e-10, global = 1.83133e-20, cumulative = -6.1759e-19
ExecutionTime = 76.74 s  ClockTime = 77 s

Time = 0.0325

Courant Number mean: 0.209573 max: 0.980368
smoothSolver:  Solving for Ux, Initial residual = 0.00263958, Final residual = 9.87947e-06, No Iterations 82
smoothSolver:  Solving for Uy, Initial residual = 0.00660882, Final residual = 9.77832e-06, No Iterations 93
DICPCG:  Solving for p, Initial residual = 0.251679, Final residual = 0.0123595, No Iterations 178
time step continuity errors : sum local = 2.36011e-06, global = 4.95985e-20, cumulative = -5.67992e-19
DICPCG:  Solving for p, Initial residual = 0.20802, Final residual = 8.35055e-07, No Iterations 262
time step continuity errors : sum local = 1.86816e-10, global = 1.1122e-19, cumulative = -4.56772e-19
ExecutionTime = 78.13 s  ClockTime = 78 s

Time = 0.033125

Courant Number mean: 0.210132 max: 0.980975
smoothSolver:  Solving for Ux, Initial residual = 0.00176031, Final residual = 9.3985e-06, No Iterations 71
smoothSolver:  Solving for Uy, Initial residual = 0.00488825, Final residual = 9.87688e-06, No Iterations 87
DICPCG:  Solving for p, Initial residual = 0.264753, Final residual = 0.011503, No Iterations 179
time step continuity errors : sum local = 2.23451e-06, global = -1.16484e-19, cumulative = -5.73256e-19
DICPCG:  Solving for p, Initial residual = 0.226738, Final residual = 9.50293e-07, No Iterations 262
time step continuity errors : sum local = 2.04327e-10, global = 1.60252e-20, cumulative = -5.5723e-19
ExecutionTime = 79.42 s  ClockTime = 80 s

Time = 0.03375

Courant Number mean: 0.21065 max: 0.980138
smoothSolver:  Solving for Ux, Initial residual = 0.00138815, Final residual = 9.52159e-06, No Iterations 70
smoothSolver:  Solving for Uy, Initial residual = 0.00488771, Final residual = 9.4611e-06, No Iterations 90
DICPCG:  Solving for p, Initial residual = 0.263168, Final residual = 0.0130149, No Iterations 154
time step continuity errors : sum local = 2.52598e-06, global = 3.95786e-21, cumulative = -5.53273e-19
DICPCG:  Solving for p, Initial residual = 0.233049, Final residual = 9.40276e-07, No Iterations 260
time step continuity errors : sum local = 1.97787e-10, global = 1.47738e-20, cumulative = -5.38499e-19
ExecutionTime = 80.72 s  ClockTime = 81 s

Time = 0.034375

Courant Number mean: 0.211159 max: 0.980862
smoothSolver:  Solving for Ux, Initial residual = 0.00236829, Final residual = 9.88792e-06, No Iterations 84
smoothSolver:  Solving for Uy, Initial residual = 0.00541274, Final residual = 9.95721e-06, No Iterations 94
DICPCG:  Solving for p, Initial residual = 0.265091, Final residual = 0.0121329, No Iterations 174
time step continuity errors : sum local = 2.35325e-06, global = -1.22817e-20, cumulative = -5.5078e-19
DICPCG:  Solving for p, Initial residual = 0.231972, Final residual = 9.60517e-07, No Iterations 257
time step continuity errors : sum local = 2.04538e-10, global = 1.35656e-19, cumulative = -4.15124e-19
ExecutionTime = 82.1 s  ClockTime = 82 s

Time = 0.035

Courant Number mean: 0.21164 max: 0.980091
smoothSolver:  Solving for Ux, Initial residual = 0.00155043, Final residual = 9.49685e-06, No Iterations 72
smoothSolver:  Solving for Uy, Initial residual = 0.00401423, Final residual = 9.97017e-06, No Iterations 86
DICPCG:  Solving for p, Initial residual = 0.250978, Final residual = 0.0115132, No Iterations 177
time step continuity errors : sum local = 2.19711e-06, global = -5.45416e-20, cumulative = -4.69666e-19
DICPCG:  Solving for p, Initial residual = 0.230875, Final residual = 9.98445e-07, No Iterations 260
time step continuity errors : sum local = 2.00173e-10, global = 8.80405e-20, cumulative = -3.81625e-19
ExecutionTime = 83.44 s  ClockTime = 84 s

Time = 0.035625

Courant Number mean: 0.212124 max: 0.980795
smoothSolver:  Solving for Ux, Initial residual = 0.00113605, Final residual = 9.52789e-06, No Iterations 68
smoothSolver:  Solving for Uy, Initial residual = 0.00365208, Final residual = 9.56999e-06, No Iterations 86
DICPCG:  Solving for p, Initial residual = 0.217059, Final residual = 0.0103189, No Iterations 184
time step continuity errors : sum local = 1.87753e-06, global = -1.02953e-19, cumulative = -4.84579e-19
DICPCG:  Solving for p, Initial residual = 0.198838, Final residual = 7.85416e-07, No Iterations 258
time step continuity errors : sum local = 1.50075e-10, global = -1.00325e-19, cumulative = -5.84904e-19
ExecutionTime = 84.71 s  ClockTime = 85 s

Time = 0.03625

Courant Number mean: 0.21258 max: 0.980538
smoothSolver:  Solving for Ux, Initial residual = 0.000890405, Final residual = 9.86976e-06, No Iterations 64
smoothSolver:  Solving for Uy, Initial residual = 0.00305056, Final residual = 9.89155e-06, No Iterations 82
DICPCG:  Solving for p, Initial residual = 0.182785, Final residual = 0.00855437, No Iterations 150
time step continuity errors : sum local = 1.48847e-06, global = -4.18734e-20, cumulative = -6.26778e-19
DICPCG:  Solving for p, Initial residual = 0.169824, Final residual = 9.57844e-07, No Iterations 258
time step continuity errors : sum local = 1.71472e-10, global = -3.90984e-20, cumulative = -6.65876e-19
ExecutionTime = 85.93 s  ClockTime = 86 s

Time = 0.036875

Courant Number mean: 0.213028 max: 0.980864
smoothSolver:  Solving for Ux, Initial residual = 0.000825097, Final residual = 9.99348e-06, No Iterations 64
smoothSolver:  Solving for Uy, Initial residual = 0.00450223, Final residual = 9.64601e-06, No Iterations 95
DICPCG:  Solving for p, Initial residual = 0.167194, Final residual = 0.00811664, No Iterations 172
time step continuity errors : sum local = 1.3863e-06, global = 3.09669e-20, cumulative = -6.34909e-19
DICPCG:  Solving for p, Initial residual = 0.154506, Final residual = 9.39506e-07, No Iterations 258
time step continuity errors : sum local = 1.67472e-10, global = 1.22604e-19, cumulative = -5.12305e-19
ExecutionTime = 87.26 s  ClockTime = 88 s

Time = 0.0375

Courant Number mean: 0.213471 max: 0.980961
smoothSolver:  Solving for Ux, Initial residual = 0.000785865, Final residual = 9.72776e-06, No Iterations 64
smoothSolver:  Solving for Uy, Initial residual = 0.00274321, Final residual = 9.98548e-06, No Iterations 79
DICPCG:  Solving for p, Initial residual = 0.144649, Final residual = 0.00666533, No Iterations 178
time step continuity errors : sum local = 1.10782e-06, global = 3.70632e-20, cumulative = -4.75242e-19
DICPCG:  Solving for p, Initial residual = 0.136685, Final residual = 7.889e-07, No Iterations 260
time step continuity errors : sum local = 1.33339e-10, global = 2.37958e-20, cumulative = -4.51446e-19
ExecutionTime = 89.14 s  ClockTime = 89 s

Time = 0.038125

Courant Number mean: 0.213882 max: 0.980844
smoothSolver:  Solving for Ux, Initial residual = 0.00074132, Final residual = 9.94646e-06, No Iterations 63
smoothSolver:  Solving for Uy, Initial residual = 0.00183883, Final residual = 9.42968e-06, No Iterations 76
DICPCG:  Solving for p, Initial residual = 0.119635, Final residual = 0.00568264, No Iterations 151
time step continuity errors : sum local = 9.20332e-07, global = 1.37789e-19, cumulative = -3.13658e-19
DICPCG:  Solving for p, Initial residual = 0.113365, Final residual = 9.46747e-07, No Iterations 257
time step continuity errors : sum local = 1.55677e-10, global = 7.57397e-20, cumulative = -2.37918e-19
ExecutionTime = 90.32 s  ClockTime = 91 s

Time = 0.03875

Courant Number mean: 0.214275 max: 0.980651
smoothSolver:  Solving for Ux, Initial residual = 0.000599595, Final residual = 9.41214e-06, No Iterations 60
smoothSolver:  Solving for Uy, Initial residual = 0.00212254, Final residual = 9.38837e-06, No Iterations 80
DICPCG:  Solving for p, Initial residual = 0.104365, Final residual = 0.00517902, No Iterations 85
time step continuity errors : sum local = 9.39066e-07, global = 1.18981e-19, cumulative = -1.18938e-19
DICPCG:  Solving for p, Initial residual = 0.100451, Final residual = 7.79755e-07, No Iterations 258
time step continuity errors : sum local = 1.24057e-10, global = 8.43867e-20, cumulative = -3.45508e-20
ExecutionTime = 91.44 s  ClockTime = 92 s

Time = 0.039375

Courant Number mean: 0.214665 max: 0.980994
smoothSolver:  Solving for Ux, Initial residual = 0.000999325, Final residual = 9.66535e-06, No Iterations 68
smoothSolver:  Solving for Uy, Initial residual = 0.00407313, Final residual = 9.89403e-06, No Iterations 91
DICPCG:  Solving for p, Initial residual = 0.139166, Final residual = 0.00668822, No Iterations 160
time step continuity errors : sum local = 1.11182e-06, global = 4.53011e-20, cumulative = 1.07502e-20
DICPCG:  Solving for p, Initial residual = 0.115382, Final residual = 9.71244e-07, No Iterations 265
time step continuity errors : sum local = 1.89004e-10, global = 2.47974e-20, cumulative = 3.55476e-20
ExecutionTime = 92.76 s  ClockTime = 93 s

Time = 0.04

Courant Number mean: 0.215059 max: 0.980943
smoothSolver:  Solving for Ux, Initial residual = 0.00117148, Final residual = 9.38509e-06, No Iterations 69
smoothSolver:  Solving for Uy, Initial residual = 0.002652, Final residual = 9.57321e-06, No Iterations 76
DICPCG:  Solving for p, Initial residual = 0.135645, Final residual = 0.00623676, No Iterations 160
time step continuity errors : sum local = 1.03607e-06, global = -3.24739e-20, cumulative = 3.07369e-21
DICPCG:  Solving for p, Initial residual = 0.117748, Final residual = 8.49858e-07, No Iterations 261
time step continuity errors : sum local = 1.52945e-10, global = 4.34273e-20, cumulative = 4.6501e-20
ExecutionTime = 94.05 s  ClockTime = 94 s

Time = 0.040625

Courant Number mean: 0.215412 max: 0.980967
smoothSolver:  Solving for Ux, Initial residual = 0.00080005, Final residual = 9.82488e-06, No Iterations 62
smoothSolver:  Solving for Uy, Initial residual = 0.00264605, Final residual = 9.54102e-06, No Iterations 82
DICPCG:  Solving for p, Initial residual = 0.134252, Final residual = 0.00624803, No Iterations 136
time step continuity errors : sum local = 1.03135e-06, global = -7.58857e-21, cumulative = 3.89124e-20
DICPCG:  Solving for p, Initial residual = 0.120648, Final residual = 8.85087e-07, No Iterations 257
time step continuity errors : sum local = 1.55717e-10, global = -8.99956e-20, cumulative = -5.10832e-20
ExecutionTime = 95.23 s  ClockTime = 96 s

Time = 0.04125

Courant Number mean: 0.215749 max: 0.980891
smoothSolver:  Solving for Ux, Initial residual = 0.000754336, Final residual = 9.8207e-06, No Iterations 62
smoothSolver:  Solving for Uy, Initial residual = 0.00247746, Final residual = 9.77797e-06, No Iterations 82
DICPCG:  Solving for p, Initial residual = 0.127435, Final residual = 0.00576481, No Iterations 171
time step continuity errors : sum local = 9.46481e-07, global = 4.0063e-20, cumulative = -1.10202e-20
DICPCG:  Solving for p, Initial residual = 0.11807, Final residual = 8.61431e-07, No Iterations 258
time step continuity errors : sum local = 1.46207e-10, global = 2.13471e-20, cumulative = 1.03269e-20
ExecutionTime = 96.51 s  ClockTime = 97 s

Time = 0.041875

Courant Number mean: 0.216074 max: 0.980758
smoothSolver:  Solving for Ux, Initial residual = 0.000615913, Final residual = 9.66679e-06, No Iterations 59
smoothSolver:  Solving for Uy, Initial residual = 0.00216261, Final residual = 9.53393e-06, No Iterations 78
DICPCG:  Solving for p, Initial residual = 0.120775, Final residual = 0.00578775, No Iterations 174
time step continuity errors : sum local = 9.42567e-07, global = 4.54636e-20, cumulative = 5.57905e-20
DICPCG:  Solving for p, Initial residual = 0.113407, Final residual = 8.29163e-07, No Iterations 256
time step continuity errors : sum local = 1.3871e-10, global = 3.14004e-20, cumulative = 8.71909e-20
ExecutionTime = 97.78 s  ClockTime = 98 s

Time = 0.0425

Courant Number mean: 0.216402 max: 0.981002
smoothSolver:  Solving for Ux, Initial residual = 0.000556117, Final residual = 9.42407e-06, No Iterations 59
smoothSolver:  Solving for Uy, Initial residual = 0.00210754, Final residual = 9.6311e-06, No Iterations 80
DICPCG:  Solving for p, Initial residual = 0.11085, Final residual = 0.00553549, No Iterations 179
time step continuity errors : sum local = 8.92351e-07, global = 7.80724e-20, cumulative = 1.65263e-19
DICPCG:  Solving for p, Initial residual = 0.10566, Final residual = 9.41402e-07, No Iterations 257
time step continuity errors : sum local = 1.53723e-10, global = 6.9579e-20, cumulative = 2.34842e-19
ExecutionTime = 99.07 s  ClockTime = 99 s

Time = 0.043125

Courant Number mean: 0.21672 max: 0.981148
smoothSolver:  Solving for Ux, Initial residual = 0.000604827, Final residual = 9.45782e-06, No Iterations 61
smoothSolver:  Solving for Uy, Initial residual = 0.00163801, Final residual = 9.46623e-06, No Iterations 75
DICPCG:  Solving for p, Initial residual = 0.0994647, Final residual = 0.00467068, No Iterations 171
time step continuity errors : sum local = 7.41061e-07, global = -5.52981e-21, cumulative = 2.29313e-19
DICPCG:  Solving for p, Initial residual = 0.0943958, Final residual = 9.88818e-07, No Iterations 256
time step continuity errors : sum local = 1.59413e-10, global = -1.37233e-20, cumulative = 2.15589e-19
ExecutionTime = 100.28 s  ClockTime = 101 s

Time = 0.04375

Courant Number mean: 0.217018 max: 0.981033
smoothSolver:  Solving for Ux, Initial residual = 0.000561843, Final residual = 9.80256e-06, No Iterations 60
smoothSolver:  Solving for Uy, Initial residual = 0.00156912, Final residual = 9.95996e-06, No Iterations 75
DICPCG:  Solving for p, Initial residual = 0.0898441, Final residual = 0.00437402, No Iterations 181
time step continuity errors : sum local = 6.88497e-07, global = -6.55462e-20, cumulative = 1.50043e-19
DICPCG:  Solving for p, Initial residual = 0.0849809, Final residual = 9.66276e-07, No Iterations 256
time step continuity errors : sum local = 1.54869e-10, global = -7.8165e-20, cumulative = 7.1878e-20
ExecutionTime = 101.55 s  ClockTime = 102 s

Time = 0.044375

Courant Number mean: 0.217313 max: 0.981221
smoothSolver:  Solving for Ux, Initial residual = 0.000496494, Final residual = 9.85986e-06, No Iterations 57
smoothSolver:  Solving for Uy, Initial residual = 0.00136464, Final residual = 9.70671e-06, No Iterations 72
DICPCG:  Solving for p, Initial residual = 0.08023, Final residual = 0.00357791, No Iterations 150
time step continuity errors : sum local = 5.55342e-07, global = -2.50216e-20, cumulative = 4.68564e-20
DICPCG:  Solving for p, Initial residual = 0.0761225, Final residual = 8.07467e-07, No Iterations 255
time step continuity errors : sum local = 1.26643e-10, global = -8.10766e-20, cumulative = -3.42201e-20
ExecutionTime = 102.75 s  ClockTime = 103 s

Time = 0.045

Courant Number mean: 0.217589 max: 0.981043
smoothSolver:  Solving for Ux, Initial residual = 0.000401858, Final residual = 9.48644e-06, No Iterations 55
smoothSolver:  Solving for Uy, Initial residual = 0.00140709, Final residual = 9.44732e-06, No Iterations 75
DICPCG:  Solving for p, Initial residual = 0.06954, Final residual = 0.00340359, No Iterations 154
time step continuity errors : sum local = 5.23259e-07, global = -9.75637e-20, cumulative = -1.31784e-19
DICPCG:  Solving for p, Initial residual = 0.0663111, Final residual = 8.16171e-07, No Iterations 256
time step continuity errors : sum local = 1.26642e-10, global = -3.41723e-21, cumulative = -1.35201e-19
ExecutionTime = 103.96 s  ClockTime = 104 s

Time = 0.045625

Courant Number mean: 0.217859 max: 0.981198
smoothSolver:  Solving for Ux, Initial residual = 0.000398951, Final residual = 9.71369e-06, No Iterations 55
smoothSolver:  Solving for Uy, Initial residual = 0.00117329, Final residual = 9.42834e-06, No Iterations 72
DICPCG:  Solving for p, Initial residual = 0.0600511, Final residual = 0.00294241, No Iterations 163
time step continuity errors : sum local = 4.47516e-07, global = -1.1819e-19, cumulative = -2.53391e-19
DICPCG:  Solving for p, Initial residual = 0.0567562, Final residual = 9.45717e-07, No Iterations 253
time step continuity errors : sum local = 1.45225e-10, global = -4.17909e-20, cumulative = -2.95182e-19
ExecutionTime = 105.12 s  ClockTime = 105 s

Time = 0.04625

Courant Number mean: 0.218119 max: 0.9811
smoothSolver:  Solving for Ux, Initial residual = 0.000474849, Final residual = 9.94452e-06, No Iterations 58
smoothSolver:  Solving for Uy, Initial residual = 0.00109228, Final residual = 9.61935e-06, No Iterations 71
DICPCG:  Solving for p, Initial residual = 0.0557345, Final residual = 0.00255425, No Iterations 178
time step continuity errors : sum local = 3.87148e-07, global = 7.75314e-20, cumulative = -2.17651e-19
DICPCG:  Solving for p, Initial residual = 0.052937, Final residual = 9.47353e-07, No Iterations 254
time step continuity errors : sum local = 1.45059e-10, global = -9.04391e-20, cumulative = -3.0809e-19
ExecutionTime = 106.36 s  ClockTime = 107 s

Time = 0.046875

Courant Number mean: 0.218375 max: 0.981277
smoothSolver:  Solving for Ux, Initial residual = 0.00037274, Final residual = 9.72303e-06, No Iterations 53
smoothSolver:  Solving for Uy, Initial residual = 0.00104698, Final residual = 9.39979e-06, No Iterations 71
DICPCG:  Solving for p, Initial residual = 0.045668, Final residual = 0.00226999, No Iterations 161
time step continuity errors : sum local = 3.43274e-07, global = 1.04378e-20, cumulative = -2.97652e-19
DICPCG:  Solving for p, Initial residual = 0.0434412, Final residual = 9.09564e-07, No Iterations 243
time step continuity errors : sum local = 1.37427e-10, global = 5.95041e-20, cumulative = -2.38148e-19
ExecutionTime = 107.53 s  ClockTime = 108 s

Time = 0.0475

Courant Number mean: 0.218616 max: 0.981115
smoothSolver:  Solving for Ux, Initial residual = 0.000357206, Final residual = 9.41953e-06, No Iterations 55
smoothSolver:  Solving for Uy, Initial residual = 0.00103998, Final residual = 9.92831e-06, No Iterations 71
DICPCG:  Solving for p, Initial residual = 0.0421104, Final residual = 0.00179206, No Iterations 178
time step continuity errors : sum local = 2.68504e-07, global = -1.23783e-19, cumulative = -3.61931e-19
DICPCG:  Solving for p, Initial residual = 0.0396826, Final residual = 9.24428e-07, No Iterations 250
time step continuity errors : sum local = 1.4094e-10, global = -9.7706e-20, cumulative = -4.59637e-19
ExecutionTime = 108.77 s  ClockTime = 109 s

Time = 0.048125

Courant Number mean: 0.218852 max: 0.981297
smoothSolver:  Solving for Ux, Initial residual = 0.000311563, Final residual = 9.47716e-06, No Iterations 52
smoothSolver:  Solving for Uy, Initial residual = 0.000983122, Final residual = 9.42117e-06, No Iterations 70
DICPCG:  Solving for p, Initial residual = 0.0312794, Final residual = 0.00146225, No Iterations 158
time step continuity errors : sum local = 2.16654e-07, global = 1.33364e-19, cumulative = -3.26273e-19
DICPCG:  Solving for p, Initial residual = 0.0296223, Final residual = 9.65662e-07, No Iterations 245
time step continuity errors : sum local = 1.44103e-10, global = 6.4117e-21, cumulative = -3.19861e-19
ExecutionTime = 109.89 s  ClockTime = 110 s

Time = 0.04875

Courant Number mean: 0.219078 max: 0.981187
smoothSolver:  Solving for Ux, Initial residual = 0.000298786, Final residual = 9.97113e-06, No Iterations 52
smoothSolver:  Solving for Uy, Initial residual = 0.000869768, Final residual = 9.72295e-06, No Iterations 69
DICPCG:  Solving for p, Initial residual = 0.0269947, Final residual = 0.00129729, No Iterations 174
time step continuity errors : sum local = 1.91291e-07, global = -2.07357e-20, cumulative = -3.40597e-19
DICPCG:  Solving for p, Initial residual = 0.0257744, Final residual = 9.93582e-07, No Iterations 243
time step continuity errors : sum local = 1.46871e-10, global = 1.57248e-19, cumulative = -1.83348e-19
ExecutionTime = 111.08 s  ClockTime = 111 s

Time = 0.049375

Courant Number mean: 0.219299 max: 0.981294
smoothSolver:  Solving for Ux, Initial residual = 0.000267557, Final residual = 9.39576e-06, No Iterations 51
smoothSolver:  Solving for Uy, Initial residual = 0.000812392, Final residual = 9.92613e-06, No Iterations 68
DICPCG:  Solving for p, Initial residual = 0.0222846, Final residual = 0.00110603, No Iterations 178
time step continuity errors : sum local = 1.62503e-07, global = -8.37777e-20, cumulative = -2.67126e-19
DICPCG:  Solving for p, Initial residual = 0.0213204, Final residual = 9.99773e-07, No Iterations 243
time step continuity errors : sum local = 1.47412e-10, global = -9.53262e-20, cumulative = -3.62452e-19
ExecutionTime = 112.28 s  ClockTime = 113 s

Time = 0.05

Courant Number mean: 0.219509 max: 0.981246
smoothSolver:  Solving for Ux, Initial residual = 0.000255051, Final residual = 9.97138e-06, No Iterations 50
smoothSolver:  Solving for Uy, Initial residual = 0.000764306, Final residual = 9.40312e-06, No Iterations 68
DICPCG:  Solving for p, Initial residual = 0.0176915, Final residual = 0.000869209, No Iterations 179
time step continuity errors : sum local = 1.27092e-07, global = -2.19034e-19, cumulative = -5.81486e-19
DICPCG:  Solving for p, Initial residual = 0.0168076, Final residual = 7.77124e-07, No Iterations 244
time step continuity errors : sum local = 1.13885e-10, global = 1.00486e-19, cumulative = -4.81e-19
ExecutionTime = 114.08 s  ClockTime = 114 s

Time = 0.050625

Courant Number mean: 0.219714 max: 0.981282
smoothSolver:  Solving for Ux, Initial residual = 0.000239883, Final residual = 9.93965e-06, No Iterations 49
smoothSolver:  Solving for Uy, Initial residual = 0.000739722, Final residual = 9.82646e-06, No Iterations 67
DICPCG:  Solving for p, Initial residual = 0.0168051, Final residual = 0.000823578, No Iterations 179
time step continuity errors : sum local = 1.20417e-07, global = -6.88097e-20, cumulative = -5.49809e-19
DICPCG:  Solving for p, Initial residual = 0.0159977, Final residual = 8.10617e-07, No Iterations 243
time step continuity errors : sum local = 1.18592e-10, global = -6.8102e-20, cumulative = -6.17911e-19
ExecutionTime = 115.22 s  ClockTime = 116 s

Time = 0.05125

Courant Number mean: 0.219911 max: 0.981282
smoothSolver:  Solving for Ux, Initial residual = 0.000234001, Final residual = 9.86061e-06, No Iterations 49
smoothSolver:  Solving for Uy, Initial residual = 0.000698806, Final residual = 9.43712e-06, No Iterations 67
DICPCG:  Solving for p, Initial residual = 0.0150063, Final residual = 0.000738331, No Iterations 83
time step continuity errors : sum local = 1.21218e-07, global = -6.97988e-20, cumulative = -6.8771e-19
DICPCG:  Solving for p, Initial residual = 0.0144107, Final residual = 9.20051e-07, No Iterations 230
time step continuity errors : sum local = 1.34412e-10, global = 8.46731e-21, cumulative = -6.79243e-19
ExecutionTime = 116.2 s  ClockTime = 117 s

Time = 0.051875

Courant Number mean: 0.220102 max: 0.981299
smoothSolver:  Solving for Ux, Initial residual = 0.000216651, Final residual = 9.38034e-06, No Iterations 47
smoothSolver:  Solving for Uy, Initial residual = 0.000921091, Final residual = 9.78465e-06, No Iterations 70
DICPCG:  Solving for p, Initial residual = 0.0170967, Final residual = 0.000754453, No Iterations 188
time step continuity errors : sum local = 1.10432e-07, global = -3.47715e-20, cumulative = -7.14014e-19
DICPCG:  Solving for p, Initial residual = 0.0161513, Final residual = 9.93202e-07, No Iterations 251
time step continuity errors : sum local = 1.48758e-10, global = 9.62754e-20, cumulative = -6.17739e-19
ExecutionTime = 117.42 s  ClockTime = 118 s

Time = 0.0525

Courant Number mean: 0.220289 max: 0.981313
smoothSolver:  Solving for Ux, Initial residual = 0.000278628, Final residual = 9.84554e-06, No Iterations 50
smoothSolver:  Solving for Uy, Initial residual = 0.000737625, Final residual = 9.48691e-06, No Iterations 65
DICPCG:  Solving for p, Initial residual = 0.0171741, Final residual = 0.000842503, No Iterations 165
time step continuity errors : sum local = 1.2377e-07, global = 7.21259e-20, cumulative = -5.45613e-19
DICPCG:  Solving for p, Initial residual = 0.0162964, Final residual = 9.16294e-07, No Iterations 246
time step continuity errors : sum local = 1.35574e-10, global = -1.93144e-20, cumulative = -5.64928e-19
ExecutionTime = 118.59 s  ClockTime = 119 s

Time = 0.053125

Courant Number mean: 0.220467 max: 0.981328
smoothSolver:  Solving for Ux, Initial residual = 0.000234383, Final residual = 9.69616e-06, No Iterations 48
smoothSolver:  Solving for Uy, Initial residual = 0.000704557, Final residual = 9.911e-06, No Iterations 65
DICPCG:  Solving for p, Initial residual = 0.0180879, Final residual = 0.000807364, No Iterations 160
time step continuity errors : sum local = 1.18884e-07, global = 1.07081e-20, cumulative = -5.54219e-19
DICPCG:  Solving for p, Initial residual = 0.0173111, Final residual = 9.61485e-07, No Iterations 234
time step continuity errors : sum local = 1.42104e-10, global = -1.43917e-19, cumulative = -6.98136e-19
ExecutionTime = 119.67 s  ClockTime = 120 s

Time = 0.05375

Courant Number mean: 0.220639 max: 0.981325
smoothSolver:  Solving for Ux, Initial residual = 0.000176063, Final residual = 9.44121e-06, No Iterations 44
smoothSolver:  Solving for Uy, Initial residual = 0.000808141, Final residual = 9.51393e-06, No Iterations 68
DICPCG:  Solving for p, Initial residual = 0.0176392, Final residual = 0.000875128, No Iterations 149
time step continuity errors : sum local = 1.28341e-07, global = -3.4472e-20, cumulative = -7.32608e-19
DICPCG:  Solving for p, Initial residual = 0.0169605, Final residual = 9.89409e-07, No Iterations 241
time step continuity errors : sum local = 1.45257e-10, global = -6.94132e-20, cumulative = -8.02022e-19
ExecutionTime = 120.79 s  ClockTime = 121 s

Time = 0.054375

Courant Number mean: 0.220808 max: 0.981384
smoothSolver:  Solving for Ux, Initial residual = 0.000232246, Final residual = 9.68801e-06, No Iterations 48
smoothSolver:  Solving for Uy, Initial residual = 0.000581834, Final residual = 9.89246e-06, No Iterations 62
DICPCG:  Solving for p, Initial residual = 0.0167519, Final residual = 0.000738374, No Iterations 149
time step continuity errors : sum local = 1.08344e-07, global = 2.23285e-20, cumulative = -7.79693e-19
DICPCG:  Solving for p, Initial residual = 0.0158344, Final residual = 8.91939e-07, No Iterations 242
time step continuity errors : sum local = 1.30731e-10, global = -9.38303e-24, cumulative = -7.79703e-19
ExecutionTime = 121.9 s  ClockTime = 122 s

Time = 0.055

Courant Number mean: 0.220967 max: 0.981354
smoothSolver:  Solving for Ux, Initial residual = 0.000195771, Final residual = 9.71222e-06, No Iterations 46
smoothSolver:  Solving for Uy, Initial residual = 0.000608257, Final residual = 9.62435e-06, No Iterations 64
DICPCG:  Solving for p, Initial residual = 0.0154001, Final residual = 0.000754872, No Iterations 73
time step continuity errors : sum local = 1.3252e-07, global = 1.13542e-19, cumulative = -6.6616e-19
DICPCG:  Solving for p, Initial residual = 0.0147444, Final residual = 9.59436e-07, No Iterations 243
time step continuity errors : sum local = 1.40408e-10, global = -6.269e-20, cumulative = -7.2885e-19
ExecutionTime = 122.88 s  ClockTime = 123 s

Time = 0.055625

Courant Number mean: 0.221124 max: 0.981379
smoothSolver:  Solving for Ux, Initial residual = 0.000230503, Final residual = 9.47596e-06, No Iterations 47
smoothSolver:  Solving for Uy, Initial residual = 0.000998817, Final residual = 9.59534e-06, No Iterations 71
DICPCG:  Solving for p, Initial residual = 0.0248268, Final residual = 0.00120627, No Iterations 161
time step continuity errors : sum local = 1.77812e-07, global = 1.08959e-19, cumulative = -6.19892e-19
DICPCG:  Solving for p, Initial residual = 0.0232108, Final residual = 8.36156e-07, No Iterations 256
time step continuity errors : sum local = 1.27985e-10, global = -5.38216e-20, cumulative = -6.73713e-19
ExecutionTime = 124.02 s  ClockTime = 124 s

Time = 0.05625

Courant Number mean: 0.221279 max: 0.981379
smoothSolver:  Solving for Ux, Initial residual = 0.00030199, Final residual = 9.47183e-06, No Iterations 50
smoothSolver:  Solving for Uy, Initial residual = 0.000712043, Final residual = 9.53628e-06, No Iterations 61
DICPCG:  Solving for p, Initial residual = 0.0266662, Final residual = 0.00132487, No Iterations 176
time step continuity errors : sum local = 1.96647e-07, global = -4.48071e-21, cumulative = -6.78194e-19
DICPCG:  Solving for p, Initial residual = 0.0253573, Final residual = 9.57793e-07, No Iterations 247
time step continuity errors : sum local = 1.43934e-10, global = 6.12354e-20, cumulative = -6.16959e-19
ExecutionTime = 125.19 s  ClockTime = 126 s

Time = 0.056875

Courant Number mean: 0.221424 max: 0.981391
smoothSolver:  Solving for Ux, Initial residual = 0.000225713, Final residual = 9.79726e-06, No Iterations 45
smoothSolver:  Solving for Uy, Initial residual = 0.000667798, Final residual = 9.66989e-06, No Iterations 63
DICPCG:  Solving for p, Initial residual = 0.0255393, Final residual = 0.00123854, No Iterations 168
time step continuity errors : sum local = 1.83424e-07, global = 1.19609e-19, cumulative = -4.97349e-19
DICPCG:  Solving for p, Initial residual = 0.0243173, Final residual = 8.81666e-07, No Iterations 248
time step continuity errors : sum local = 1.32063e-10, global = 3.90053e-20, cumulative = -4.58344e-19
ExecutionTime = 126.36 s  ClockTime = 127 s

Time = 0.0575

Courant Number mean: 0.221563 max: 0.981368
smoothSolver:  Solving for Ux, Initial residual = 0.000254301, Final residual = 9.62173e-06, No Iterations 49
smoothSolver:  Solving for Uy, Initial residual = 0.000550997, Final residual = 9.87766e-06, No Iterations 59
DICPCG:  Solving for p, Initial residual = 0.0233658, Final residual = 0.00109521, No Iterations 184
time step continuity errors : sum local = 1.61159e-07, global = 6.47942e-20, cumulative = -3.9355e-19
DICPCG:  Solving for p, Initial residual = 0.022139, Final residual = 9.51713e-07, No Iterations 245
time step continuity errors : sum local = 1.41518e-10, global = -8.38712e-20, cumulative = -4.77421e-19
ExecutionTime = 127.53 s  ClockTime = 128 s

Time = 0.058125

Courant Number mean: 0.2217 max: 0.981427
smoothSolver:  Solving for Ux, Initial residual = 0.00019263, Final residual = 9.82554e-06, No Iterations 43
smoothSolver:  Solving for Uy, Initial residual = 0.000590505, Final residual = 9.6657e-06, No Iterations 62
DICPCG:  Solving for p, Initial residual = 0.0218364, Final residual = 0.0010864, No Iterations 177
time step continuity errors : sum local = 1.6019e-07, global = -4.97544e-20, cumulative = -5.27175e-19
DICPCG:  Solving for p, Initial residual = 0.0208113, Final residual = 8.70784e-07, No Iterations 230
time step continuity errors : sum local = 1.29016e-10, global = -5.99517e-20, cumulative = -5.87127e-19
ExecutionTime = 128.61 s  ClockTime = 129 s

Time = 0.05875

Courant Number mean: 0.221831 max: 0.981408
smoothSolver:  Solving for Ux, Initial residual = 0.000176683, Final residual = 9.85604e-06, No Iterations 43
smoothSolver:  Solving for Uy, Initial residual = 0.000569338, Final residual = 9.9171e-06, No Iterations 61
DICPCG:  Solving for p, Initial residual = 0.0213242, Final residual = 0.00104477, No Iterations 184
time step continuity errors : sum local = 1.53718e-07, global = 5.36376e-20, cumulative = -5.33489e-19
DICPCG:  Solving for p, Initial residual = 0.0204323, Final residual = 9.60921e-07, No Iterations 245
time step continuity errors : sum local = 1.42052e-10, global = 2.11156e-20, cumulative = -5.12374e-19
ExecutionTime = 129.77 s  ClockTime = 130 s

Time = 0.059375

Courant Number mean: 0.221959 max: 0.981437
smoothSolver:  Solving for Ux, Initial residual = 0.000170712, Final residual = 9.75826e-06, No Iterations 43
smoothSolver:  Solving for Uy, Initial residual = 0.00051251, Final residual = 9.52082e-06, No Iterations 60
DICPCG:  Solving for p, Initial residual = 0.0183064, Final residual = 0.000908805, No Iterations 160
time step continuity errors : sum local = 1.33915e-07, global = -1.24206e-19, cumulative = -6.3658e-19
DICPCG:  Solving for p, Initial residual = 0.0174567, Final residual = 9.23481e-07, No Iterations 242
time step continuity errors : sum local = 1.35957e-10, global = 4.01135e-20, cumulative = -5.96466e-19
ExecutionTime = 130.88 s  ClockTime = 131 s

Time = 0.06

Courant Number mean: 0.222081 max: 0.981429
smoothSolver:  Solving for Ux, Initial residual = 0.000176067, Final residual = 9.86274e-06, No Iterations 44
smoothSolver:  Solving for Uy, Initial residual = 0.000449408, Final residual = 9.81991e-06, No Iterations 58
DICPCG:  Solving for p, Initial residual = 0.0153971, Final residual = 0.000736793, No Iterations 175
time step continuity errors : sum local = 1.07747e-07, global = 7.18066e-20, cumulative = -5.24659e-19
DICPCG:  Solving for p, Initial residual = 0.0146977, Final residual = 9.70279e-07, No Iterations 241
time step continuity errors : sum local = 1.42756e-10, global = 7.22316e-20, cumulative = -4.52428e-19
ExecutionTime = 132.01 s  ClockTime = 132 s

Time = 0.060625

Courant Number mean: 0.222201 max: 0.981463
smoothSolver:  Solving for Ux, Initial residual = 0.00015964, Final residual = 9.95156e-06, No Iterations 41
smoothSolver:  Solving for Uy, Initial residual = 0.00045683, Final residual = 9.84883e-06, No Iterations 59
DICPCG:  Solving for p, Initial residual = 0.0129768, Final residual = 0.000589395, No Iterations 178
time step continuity errors : sum local = 8.59578e-08, global = -2.23304e-19, cumulative = -6.75732e-19
DICPCG:  Solving for p, Initial residual = 0.0124123, Final residual = 8.34964e-07, No Iterations 242
time step continuity errors : sum local = 1.22e-10, global = -6.03065e-20, cumulative = -7.36038e-19
ExecutionTime = 133.08 s  ClockTime = 133 s

Time = 0.06125

Courant Number mean: 0.222315 max: 0.98144
smoothSolver:  Solving for Ux, Initial residual = 0.000145349, Final residual = 9.894e-06, No Iterations 41
smoothSolver:  Solving for Uy, Initial residual = 0.000427373, Final residual = 9.9583e-06, No Iterations 58
DICPCG:  Solving for p, Initial residual = 0.0108949, Final residual = 0.000485631, No Iterations 178
time step continuity errors : sum local = 7.08251e-08, global = -3.59336e-20, cumulative = -7.71972e-19
DICPCG:  Solving for p, Initial residual = 0.0104085, Final residual = 8.48975e-07, No Iterations 230
time step continuity errors : sum local = 1.23888e-10, global = 6.97248e-20, cumulative = -7.02247e-19
ExecutionTime = 134.19 s  ClockTime = 135 s

Time = 0.061875

Courant Number mean: 0.222426 max: 0.981464
smoothSolver:  Solving for Ux, Initial residual = 0.00013681, Final residual = 9.46951e-06, No Iterations 41
smoothSolver:  Solving for Uy, Initial residual = 0.000405936, Final residual = 9.64253e-06, No Iterations 58
DICPCG:  Solving for p, Initial residual = 0.00918861, Final residual = 0.000421393, No Iterations 176
time step continuity errors : sum local = 6.13141e-08, global = -9.49697e-20, cumulative = -7.97217e-19
DICPCG:  Solving for p, Initial residual = 0.00879879, Final residual = 9.04611e-07, No Iterations 239
time step continuity errors : sum local = 1.31748e-10, global = -5.73721e-20, cumulative = -8.54589e-19
ExecutionTime = 135.3 s  ClockTime = 136 s

Time = 0.0625

Courant Number mean: 0.222533 max: 0.981453
smoothSolver:  Solving for Ux, Initial residual = 0.000131655, Final residual = 9.74481e-06, No Iterations 40
smoothSolver:  Solving for Uy, Initial residual = 0.000397874, Final residual = 9.39201e-06, No Iterations 58
DICPCG:  Solving for p, Initial residual = 0.00841104, Final residual = 0.000369954, No Iterations 171
time step continuity errors : sum local = 5.38591e-08, global = 8.17355e-20, cumulative = -7.72854e-19
DICPCG:  Solving for p, Initial residual = 0.00807099, Final residual = 9.94224e-07, No Iterations 234
time step continuity errors : sum local = 1.44728e-10, global = 1.01154e-19, cumulative = -6.717e-19
ExecutionTime = 137 s  ClockTime = 137 s

Time = 0.063125

Courant Number mean: 0.222637 max: 0.981486
smoothSolver:  Solving for Ux, Initial residual = 0.000125866, Final residual = 9.93452e-06, No Iterations 39
smoothSolver:  Solving for Uy, Initial residual = 0.000376029, Final residual = 9.61153e-06, No Iterations 57
DICPCG:  Solving for p, Initial residual = 0.00685555, Final residual = 0.000339929, No Iterations 182
time step continuity errors : sum local = 4.94044e-08, global = -1.01455e-19, cumulative = -7.73155e-19
DICPCG:  Solving for p, Initial residual = 0.00656278, Final residual = 9.12792e-07, No Iterations 238
time step continuity errors : sum local = 1.32672e-10, global = 1.04318e-19, cumulative = -6.68837e-19
ExecutionTime = 138.06 s  ClockTime = 138 s

Time = 0.06375

Courant Number mean: 0.222737 max: 0.981464
smoothSolver:  Solving for Ux, Initial residual = 0.00012382, Final residual = 9.88031e-06, No Iterations 39
smoothSolver:  Solving for Uy, Initial residual = 0.000356138, Final residual = 9.79407e-06, No Iterations 56
DICPCG:  Solving for p, Initial residual = 0.00591718, Final residual = 0.000283072, No Iterations 183
time step continuity errors : sum local = 4.10408e-08, global = 3.80212e-20, cumulative = -6.30816e-19
DICPCG:  Solving for p, Initial residual = 0.0056434, Final residual = 8.95407e-07, No Iterations 235
time step continuity errors : sum local = 1.29894e-10, global = -1.84118e-19, cumulative = -8.14934e-19
ExecutionTime = 139.17 s  ClockTime = 140 s

Time = 0.064375

Courant Number mean: 0.222835 max: 0.981491
smoothSolver:  Solving for Ux, Initial residual = 0.000116536, Final residual = 9.52529e-06, No Iterations 39
smoothSolver:  Solving for Uy, Initial residual = 0.000341007, Final residual = 9.47871e-06, No Iterations 56
DICPCG:  Solving for p, Initial residual = 0.00461232, Final residual = 0.00021517, No Iterations 166
time step continuity errors : sum local = 3.12235e-08, global = 1.29162e-19, cumulative = -6.85772e-19
DICPCG:  Solving for p, Initial residual = 0.00438518, Final residual = 9.31235e-07, No Iterations 229
time step continuity errors : sum local = 1.34931e-10, global = -4.91754e-20, cumulative = -7.34947e-19
ExecutionTime = 140.24 s  ClockTime = 141 s

Time = 0.065

Courant Number mean: 0.222929 max: 0.981487
smoothSolver:  Solving for Ux, Initial residual = 0.000111544, Final residual = 9.81146e-06, No Iterations 38
smoothSolver:  Solving for Uy, Initial residual = 0.000332864, Final residual = 9.92929e-06, No Iterations 55
DICPCG:  Solving for p, Initial residual = 0.00385715, Final residual = 0.000185915, No Iterations 185
time step continuity errors : sum local = 2.69205e-08, global = 3.59076e-20, cumulative = -6.9904e-19
DICPCG:  Solving for p, Initial residual = 0.00370459, Final residual = 9.80145e-07, No Iterations 223
time step continuity errors : sum local = 1.42051e-10, global = -1.45052e-19, cumulative = -8.44092e-19
ExecutionTime = 141.32 s  ClockTime = 142 s

Time = 0.065625

Courant Number mean: 0.22302 max: 0.981505
smoothSolver:  Solving for Ux, Initial residual = 0.000110664, Final residual = 9.57477e-06, No Iterations 38
smoothSolver:  Solving for Uy, Initial residual = 0.000314103, Final residual = 9.417e-06, No Iterations 55
DICPCG:  Solving for p, Initial residual = 0.00296233, Final residual = 0.000147142, No Iterations 174
time step continuity errors : sum local = 2.13134e-08, global = 4.02506e-20, cumulative = -8.03841e-19
DICPCG:  Solving for p, Initial residual = 0.00283441, Final residual = 8.56791e-07, No Iterations 232
time step continuity errors : sum local = 1.24016e-10, global = 1.62833e-21, cumulative = -8.02213e-19
ExecutionTime = 142.37 s  ClockTime = 143 s

Time = 0.06625

Courant Number mean: 0.223108 max: 0.981499
smoothSolver:  Solving for Ux, Initial residual = 0.000103692, Final residual = 9.8118e-06, No Iterations 37
smoothSolver:  Solving for Uy, Initial residual = 0.000307083, Final residual = 9.87695e-06, No Iterations 54
DICPCG:  Solving for p, Initial residual = 0.00246637, Final residual = 0.000120829, No Iterations 178
time step continuity errors : sum local = 1.74689e-08, global = -5.83026e-20, cumulative = -8.60516e-19
DICPCG:  Solving for p, Initial residual = 0.00235812, Final residual = 9.39762e-07, No Iterations 230
time step continuity errors : sum local = 1.36109e-10, global = -1.14646e-19, cumulative = -9.75161e-19
ExecutionTime = 143.44 s  ClockTime = 144 s

Time = 0.066875

Courant Number mean: 0.223193 max: 0.981509
smoothSolver:  Solving for Ux, Initial residual = 0.000101167, Final residual = 9.57603e-06, No Iterations 37
smoothSolver:  Solving for Uy, Initial residual = 0.000291773, Final residual = 9.39415e-06, No Iterations 54
DICPCG:  Solving for p, Initial residual = 0.00222085, Final residual = 9.91933e-05, No Iterations 157
time step continuity errors : sum local = 1.43712e-08, global = -1.99003e-19, cumulative = -1.17416e-18
DICPCG:  Solving for p, Initial residual = 0.00213507, Final residual = 7.83315e-07, No Iterations 232
time step continuity errors : sum local = 1.13256e-10, global = -4.91724e-20, cumulative = -1.22334e-18
ExecutionTime = 144.48 s  ClockTime = 145 s

Time = 0.0675

Courant Number mean: 0.223275 max: 0.981509
smoothSolver:  Solving for Ux, Initial residual = 9.66992e-05, Final residual = 9.81573e-06, No Iterations 36
smoothSolver:  Solving for Uy, Initial residual = 0.000287488, Final residual = 9.91615e-06, No Iterations 53
DICPCG:  Solving for p, Initial residual = 0.00196334, Final residual = 9.54249e-05, No Iterations 178
time step continuity errors : sum local = 1.38112e-08, global = 1.17657e-19, cumulative = -1.10568e-18
DICPCG:  Solving for p, Initial residual = 0.00188947, Final residual = 9.78372e-07, No Iterations 221
time step continuity errors : sum local = 1.41801e-10, global = -9.08279e-20, cumulative = -1.19651e-18
ExecutionTime = 145.53 s  ClockTime = 146 s

Time = 0.068125

Courant Number mean: 0.223354 max: 0.981519
smoothSolver:  Solving for Ux, Initial residual = 9.50209e-05, Final residual = 9.60331e-06, No Iterations 36
[...]
time step continuity errors : sum local = 1.22611e-10, global = 3.66161e-20, cumulative = -5.36287e-18
ExecutionTime = 395.04 s  ClockTime = 396 s

Time = 0.48375

Courant Number mean: 0.225832 max: 0.98166
smoothSolver:  Solving for Ux, Initial residual = 2.98973e-06, Final residual = 2.98973e-06, No Iterations 0
smoothSolver:  Solving for Uy, Initial residual = 7.63367e-06, Final residual = 7.63367e-06, No Iterations 0
DICPCG:  Solving for p, Initial residual = 1.57575e-06, Final residual = 8.31109e-07, No Iterations 2
time step continuity errors : sum local = 1.21325e-10, global = 9.38687e-20, cumulative = -5.269e-18
DICPCG:  Solving for p, Initial residual = 1.59202e-06, Final residual = 8.91316e-07, No Iterations 1
time step continuity errors : sum local = 1.29943e-10, global = 2.35427e-20, cumulative = -5.24546e-18
ExecutionTime = 395.11 s  ClockTime = 396 s

Time = 0.484375

Courant Number mean: 0.225832 max: 0.98166
smoothSolver:  Solving for Ux, Initial residual = 2.98595e-06, Final residual = 2.98595e-06, No Iterations 0
smoothSolver:  Solving for Uy, Initial residual = 7.62726e-06, Final residual = 7.62726e-06, No Iterations 0
DICPCG:  Solving for p, Initial residual = 1.34856e-06, Final residual = 7.74945e-07, No Iterations 1
time step continuity errors : sum local = 1.13195e-10, global = -6.03977e-20, cumulative = -5.30585e-18
DICPCG:  Solving for p, Initial residual = 1.06499e-06, Final residual = 8.07776e-07, No Iterations 1
time step continuity errors : sum local = 1.17972e-10, global = -1.81372e-19, cumulative = -5.48723e-18
ExecutionTime = 395.16 s  ClockTime = 396 s

Time = 0.485

Courant Number mean: 0.225832 max: 0.98166
smoothSolver:  Solving for Ux, Initial residual = 2.98262e-06, Final residual = 2.98262e-06, No Iterations 0
smoothSolver:  Solving for Uy, Initial residual = 7.6216e-06, Final residual = 7.6216e-06, No Iterations 0
DICPCG:  Solving for p, Initial residual = 1.00853e-06, Final residual = 8.14839e-07, No Iterations 1
time step continuity errors : sum local = 1.18966e-10, global = -1.0859e-20, cumulative = -5.49809e-18
DICPCG:  Solving for p, Initial residual = 1.02129e-06, Final residual = 8.68029e-07, No Iterations 1
time step continuity errors : sum local = 1.2664e-10, global = 8.84342e-22, cumulative = -5.4972e-18
ExecutionTime = 395.23 s  ClockTime = 396 s

Time = 0.485625

Courant Number mean: 0.225832 max: 0.98166
smoothSolver:  Solving for Ux, Initial residual = 2.9792e-06, Final residual = 2.9792e-06, No Iterations 0
smoothSolver:  Solving for Uy, Initial residual = 7.61664e-06, Final residual = 7.61664e-06, No Iterations 0
DICPCG:  Solving for p, Initial residual = 1.06955e-06, Final residual = 9.2684e-07, No Iterations 1
time step continuity errors : sum local = 1.35105e-10, global = -3.56174e-20, cumulative = -5.53282e-18
DICPCG:  Solving for p, Initial residual = 1.12737e-06, Final residual = 9.86322e-07, No Iterations 1
time step continuity errors : sum local = 1.43665e-10, global = 6.29434e-21, cumulative = -5.52652e-18
ExecutionTime = 395.28 s  ClockTime = 396 s

Time = 0.48625

Courant Number mean: 0.225832 max: 0.98166
smoothSolver:  Solving for Ux, Initial residual = 2.97577e-06, Final residual = 2.97577e-06, No Iterations 0
smoothSolver:  Solving for Uy, Initial residual = 7.61198e-06, Final residual = 7.61198e-06, No Iterations 0
DICPCG:  Solving for p, Initial residual = 1.18697e-06, Final residual = 9.04514e-07, No Iterations 24
time step continuity errors : sum local = 1.32998e-10, global = 1.1264e-19, cumulative = -5.41388e-18
DICPCG:  Solving for p, Initial residual = 1.76507e-06, Final residual = 9.72073e-07, No Iterations 27
time step continuity errors : sum local = 1.4309e-10, global = 1.27547e-20, cumulative = -5.40113e-18
ExecutionTime = 395.44 s  ClockTime = 396 s

Time = 0.486875

Courant Number mean: 0.225832 max: 0.98166
smoothSolver:  Solving for Ux, Initial residual = 2.92075e-06, Final residual = 2.92075e-06, No Iterations 0
smoothSolver:  Solving for Uy, Initial residual = 7.76964e-06, Final residual = 7.76964e-06, No Iterations 0
DICPCG:  Solving for p, Initial residual = 1.7773e-06, Final residual = 9.64235e-07, No Iterations 8
time step continuity errors : sum local = 1.42127e-10, global = 5.19137e-20, cumulative = -5.34922e-18
DICPCG:  Solving for p, Initial residual = 1.77907e-06, Final residual = 9.73223e-07, No Iterations 5
time step continuity errors : sum local = 1.4302e-10, global = 9.14706e-21, cumulative = -5.34007e-18
ExecutionTime = 395.52 s  ClockTime = 397 s

Time = 0.4875

Courant Number mean: 0.225832 max: 0.98166
smoothSolver:  Solving for Ux, Initial residual = 2.92708e-06, Final residual = 2.92708e-06, No Iterations 0
smoothSolver:  Solving for Uy, Initial residual = 7.73762e-06, Final residual = 7.73762e-06, No Iterations 0
DICPCG:  Solving for p, Initial residual = 1.75338e-06, Final residual = 8.12855e-07, No Iterations 16
time step continuity errors : sum local = 1.18155e-10, global = -1.07436e-19, cumulative = -5.4475e-18
DICPCG:  Solving for p, Initial residual = 1.55924e-06, Final residual = 8.37188e-07, No Iterations 9
time step continuity errors : sum local = 1.20925e-10, global = -6.51602e-20, cumulative = -5.51266e-18
ExecutionTime = 396.22 s  ClockTime = 397 s

Time = 0.488125

Courant Number mean: 0.225832 max: 0.98166
smoothSolver:  Solving for Ux, Initial residual = 2.97058e-06, Final residual = 2.97058e-06, No Iterations 0
smoothSolver:  Solving for Uy, Initial residual = 7.57325e-06, Final residual = 7.57325e-06, No Iterations 0
DICPCG:  Solving for p, Initial residual = 1.47414e-06, Final residual = 9.73304e-07, No Iterations 6
time step continuity errors : sum local = 1.40487e-10, global = -3.57899e-20, cumulative = -5.54845e-18
DICPCG:  Solving for p, Initial residual = 1.81121e-06, Final residual = 7.5959e-07, No Iterations 4
time step continuity errors : sum local = 1.1009e-10, global = 6.74829e-20, cumulative = -5.48097e-18
ExecutionTime = 396.28 s  ClockTime = 397 s

Time = 0.48875

Courant Number mean: 0.225832 max: 0.98166
smoothSolver:  Solving for Ux, Initial residual = 2.97026e-06, Final residual = 2.97026e-06, No Iterations 0
smoothSolver:  Solving for Uy, Initial residual = 7.56892e-06, Final residual = 7.56892e-06, No Iterations 0
DICPCG:  Solving for p, Initial residual = 1.59864e-06, Final residual = 9.5375e-07, No Iterations 3
time step continuity errors : sum local = 1.37677e-10, global = 6.88928e-20, cumulative = -5.41208e-18
DICPCG:  Solving for p, Initial residual = 1.70461e-06, Final residual = 8.14719e-07, No Iterations 2
time step continuity errors : sum local = 1.18298e-10, global = 1.91764e-20, cumulative = -5.3929e-18
ExecutionTime = 396.36 s  ClockTime = 397 s

Time = 0.489375

Courant Number mean: 0.225832 max: 0.98166
smoothSolver:  Solving for Ux, Initial residual = 2.96419e-06, Final residual = 2.96419e-06, No Iterations 0
smoothSolver:  Solving for Uy, Initial residual = 7.56871e-06, Final residual = 7.56871e-06, No Iterations 0
DICPCG:  Solving for p, Initial residual = 1.674e-06, Final residual = 8.21633e-07, No Iterations 2
time step continuity errors : sum local = 1.19221e-10, global = -1.00175e-19, cumulative = -5.49308e-18
DICPCG:  Solving for p, Initial residual = 1.49327e-06, Final residual = 8.94332e-07, No Iterations 1
time step continuity errors : sum local = 1.29912e-10, global = 6.81187e-20, cumulative = -5.42496e-18
ExecutionTime = 396.41 s  ClockTime = 397 s

Time = 0.49

Courant Number mean: 0.225832 max: 0.98166
smoothSolver:  Solving for Ux, Initial residual = 2.95971e-06, Final residual = 2.95971e-06, No Iterations 0
smoothSolver:  Solving for Uy, Initial residual = 7.56334e-06, Final residual = 7.56334e-06, No Iterations 0
DICPCG:  Solving for p, Initial residual = 1.23068e-06, Final residual = 7.80478e-07, No Iterations 1
time step continuity errors : sum local = 1.13484e-10, global = -1.06629e-20, cumulative = -5.43562e-18
DICPCG:  Solving for p, Initial residual = 9.11495e-07, Final residual = 9.11495e-07, No Iterations 0
time step continuity errors : sum local = 1.32409e-10, global = -5.99489e-22, cumulative = -5.43622e-18
ExecutionTime = 396.48 s  ClockTime = 398 s

Time = 0.490625

Courant Number mean: 0.225832 max: 0.98166
smoothSolver:  Solving for Ux, Initial residual = 2.95691e-06, Final residual = 2.95691e-06, No Iterations 0
smoothSolver:  Solving for Uy, Initial residual = 7.55703e-06, Final residual = 7.55703e-06, No Iterations 0
DICPCG:  Solving for p, Initial residual = 1.0676e-06, Final residual = 9.29788e-07, No Iterations 1
time step continuity errors : sum local = 1.35093e-10, global = -9.03973e-20, cumulative = -5.52662e-18
DICPCG:  Solving for p, Initial residual = 1.13345e-06, Final residual = 9.75204e-07, No Iterations 1
time step continuity errors : sum local = 1.41684e-10, global = 1.40768e-19, cumulative = -5.38585e-18
ExecutionTime = 396.53 s  ClockTime = 398 s

Time = 0.49125

Courant Number mean: 0.225832 max: 0.98166
smoothSolver:  Solving for Ux, Initial residual = 2.95354e-06, Final residual = 2.95354e-06, No Iterations 0
smoothSolver:  Solving for Uy, Initial residual = 7.55265e-06, Final residual = 7.55265e-06, No Iterations 0
DICPCG:  Solving for p, Initial residual = 1.11929e-06, Final residual = 9.94079e-07, No Iterations 25
time step continuity errors : sum local = 1.4889e-10, global = 8.8196e-20, cumulative = -5.29766e-18
DICPCG:  Solving for p, Initial residual = 1.95449e-06, Final residual = 8.43335e-07, No Iterations 18
time step continuity errors : sum local = 1.25482e-10, global = 1.28132e-19, cumulative = -5.16952e-18
ExecutionTime = 396.67 s  ClockTime = 398 s

Time = 0.491875

Courant Number mean: 0.225833 max: 0.98166
smoothSolver:  Solving for Ux, Initial residual = 2.83964e-06, Final residual = 2.83964e-06, No Iterations 0
smoothSolver:  Solving for Uy, Initial residual = 7.92892e-06, Final residual = 7.92892e-06, No Iterations 0
DICPCG:  Solving for p, Initial residual = 1.64838e-06, Final residual = 9.31577e-07, No Iterations 25
time step continuity errors : sum local = 1.36584e-10, global = -6.16212e-20, cumulative = -5.23114e-18
DICPCG:  Solving for p, Initial residual = 1.70792e-06, Final residual = 9.99977e-07, No Iterations 11
time step continuity errors : sum local = 1.45652e-10, global = -1.44596e-19, cumulative = -5.37574e-18
ExecutionTime = 396.79 s  ClockTime = 398 s

Time = 0.4925

Courant Number mean: 0.225833 max: 0.98166
smoothSolver:  Solving for Ux, Initial residual = 2.95502e-06, Final residual = 2.95502e-06, No Iterations 0
smoothSolver:  Solving for Uy, Initial residual = 7.50705e-06, Final residual = 7.50705e-06, No Iterations 0
DICPCG:  Solving for p, Initial residual = 1.79374e-06, Final residual = 7.91722e-07, No Iterations 6
time step continuity errors : sum local = 1.15235e-10, global = -2.35899e-19, cumulative = -5.61164e-18
DICPCG:  Solving for p, Initial residual = 1.59903e-06, Final residual = 8.37122e-07, No Iterations 3
time step continuity errors : sum local = 1.21304e-10, global = 6.90254e-20, cumulative = -5.54262e-18
ExecutionTime = 396.86 s  ClockTime = 398 s

Time = 0.493125

Courant Number mean: 0.225833 max: 0.98166
smoothSolver:  Solving for Ux, Initial residual = 2.94731e-06, Final residual = 2.94731e-06, No Iterations 0
smoothSolver:  Solving for Uy, Initial residual = 7.5288e-06, Final residual = 7.5288e-06, No Iterations 0
DICPCG:  Solving for p, Initial residual = 1.51585e-06, Final residual = 8.78316e-07, No Iterations 2
time step continuity errors : sum local = 1.28019e-10, global = -1.91615e-20, cumulative = -5.56178e-18
DICPCG:  Solving for p, Initial residual = 1.6088e-06, Final residual = 9.27652e-07, No Iterations 1
time step continuity errors : sum local = 1.34909e-10, global = -5.28398e-21, cumulative = -5.56706e-18
ExecutionTime = 396.93 s  ClockTime = 398 s

Time = 0.49375

Courant Number mean: 0.225833 max: 0.98166
smoothSolver:  Solving for Ux, Initial residual = 2.94316e-06, Final residual = 2.94316e-06, No Iterations 0
smoothSolver:  Solving for Uy, Initial residual = 7.52295e-06, Final residual = 7.52295e-06, No Iterations 0
DICPCG:  Solving for p, Initial residual = 1.34299e-06, Final residual = 8.10154e-07, No Iterations 1
time step continuity errors : sum local = 1.17854e-10, global = 1.80723e-19, cumulative = -5.38634e-18
DICPCG:  Solving for p, Initial residual = 1.02429e-06, Final residual = 8.74199e-07, No Iterations 1
time step continuity errors : sum local = 1.27057e-10, global = 3.84296e-20, cumulative = -5.34791e-18
ExecutionTime = 396.98 s  ClockTime = 398 s

Time = 0.494375

Courant Number mean: 0.225833 max: 0.98166
smoothSolver:  Solving for Ux, Initial residual = 2.93999e-06, Final residual = 2.93999e-06, No Iterations 0
smoothSolver:  Solving for Uy, Initial residual = 7.51757e-06, Final residual = 7.51757e-06, No Iterations 0
DICPCG:  Solving for p, Initial residual = 1.03442e-06, Final residual = 9.06741e-07, No Iterations 1
time step continuity errors : sum local = 1.31743e-10, global = -2.59888e-20, cumulative = -5.3739e-18
DICPCG:  Solving for p, Initial residual = 1.07552e-06, Final residual = 9.87496e-07, No Iterations 1
time step continuity errors : sum local = 1.4339e-10, global = -1.05586e-19, cumulative = -5.47948e-18
ExecutionTime = 397.05 s  ClockTime = 398 s

Time = 0.495

Courant Number mean: 0.225833 max: 0.98166
smoothSolver:  Solving for Ux, Initial residual = 2.93653e-06, Final residual = 2.93653e-06, No Iterations 0
smoothSolver:  Solving for Uy, Initial residual = 7.5126e-06, Final residual = 7.5126e-06, No Iterations 0
DICPCG:  Solving for p, Initial residual = 1.15408e-06, Final residual = 9.41596e-07, No Iterations 22
time step continuity errors : sum local = 1.38097e-10, global = 1.19399e-19, cumulative = -5.36008e-18
DICPCG:  Solving for p, Initial residual = 1.86879e-06, Final residual = 9.6747e-07, No Iterations 26
time step continuity errors : sum local = 1.42445e-10, global = 1.73579e-19, cumulative = -5.1865e-18
ExecutionTime = 397.19 s  ClockTime = 398 s

Time = 0.495625

Courant Number mean: 0.225833 max: 0.98166
smoothSolver:  Solving for Ux, Initial residual = 2.85688e-06, Final residual = 2.85688e-06, No Iterations 0
smoothSolver:  Solving for Uy, Initial residual = 7.76908e-06, Final residual = 7.76908e-06, No Iterations 0
DICPCG:  Solving for p, Initial residual = 1.78149e-06, Final residual = 8.96492e-07, No Iterations 14
time step continuity errors : sum local = 1.32232e-10, global = 6.4037e-20, cumulative = -5.12247e-18
DICPCG:  Solving for p, Initial residual = 1.72489e-06, Final residual = 6.98277e-07, No Iterations 7
time step continuity errors : sum local = 1.03023e-10, global = -8.44638e-20, cumulative = -5.20693e-18
ExecutionTime = 397.28 s  ClockTime = 398 s

Time = 0.49625

Courant Number mean: 0.225833 max: 0.98166
smoothSolver:  Solving for Ux, Initial residual = 2.88904e-06, Final residual = 2.88904e-06, No Iterations 0
smoothSolver:  Solving for Uy, Initial residual = 7.61937e-06, Final residual = 7.61937e-06, No Iterations 0
DICPCG:  Solving for p, Initial residual = 1.38832e-06, Final residual = 6.72687e-07, No Iterations 4
time step continuity errors : sum local = 9.91376e-11, global = -6.90818e-20, cumulative = -5.27601e-18
DICPCG:  Solving for p, Initial residual = 1.29375e-06, Final residual = 9.65923e-07, No Iterations 2
time step continuity errors : sum local = 1.41301e-10, global = -7.28775e-20, cumulative = -5.34889e-18
ExecutionTime = 397.35 s  ClockTime = 398 s

Time = 0.496875

Courant Number mean: 0.225833 max: 0.98166
smoothSolver:  Solving for Ux, Initial residual = 2.88908e-06, Final residual = 2.88908e-06, No Iterations 0
smoothSolver:  Solving for Uy, Initial residual = 7.59959e-06, Final residual = 7.59959e-06, No Iterations 0
DICPCG:  Solving for p, Initial residual = 1.84762e-06, Final residual = 8.84515e-07, No Iterations 2
time step continuity errors : sum local = 1.29874e-10, global = 1.51312e-19, cumulative = -5.19758e-18
DICPCG:  Solving for p, Initial residual = 1.67049e-06, Final residual = 7.60672e-07, No Iterations 1
time step continuity errors : sum local = 1.11776e-10, global = -3.66994e-20, cumulative = -5.23428e-18
ExecutionTime = 397.41 s  ClockTime = 398 s

Time = 0.4975

Courant Number mean: 0.225833 max: 0.98166
smoothSolver:  Solving for Ux, Initial residual = 2.88826e-06, Final residual = 2.88826e-06, No Iterations 0
smoothSolver:  Solving for Uy, Initial residual = 7.58759e-06, Final residual = 7.58759e-06, No Iterations 0
DICPCG:  Solving for p, Initial residual = 1.08476e-06, Final residual = 7.85597e-07, No Iterations 1
time step continuity errors : sum local = 1.15414e-10, global = 9.02077e-20, cumulative = -5.14407e-18
DICPCG:  Solving for p, Initial residual = 9.62069e-07, Final residual = 9.62069e-07, No Iterations 0
time step continuity errors : sum local = 1.40905e-10, global = -7.12401e-20, cumulative = -5.21531e-18
ExecutionTime = 397.47 s  ClockTime = 399 s

Time = 0.498125

Courant Number mean: 0.225833 max: 0.98166
smoothSolver:  Solving for Ux, Initial residual = 2.88628e-06, Final residual = 2.88628e-06, No Iterations 0
smoothSolver:  Solving for Uy, Initial residual = 7.57934e-06, Final residual = 7.57934e-06, No Iterations 0
DICPCG:  Solving for p, Initial residual = 1.13249e-06, Final residual = 9.9513e-07, No Iterations 1
time step continuity errors : sum local = 1.45673e-10, global = 1.47385e-19, cumulative = -5.06793e-18
DICPCG:  Solving for p, Initial residual = 1.21848e-06, Final residual = 9.98109e-07, No Iterations 18
time step continuity errors : sum local = 1.454e-10, global = -1.65293e-19, cumulative = -5.23322e-18
ExecutionTime = 397.56 s  ClockTime = 399 s

Time = 0.49875

Courant Number mean: 0.225833 max: 0.98166
smoothSolver:  Solving for Ux, Initial residual = 2.97718e-06, Final residual = 2.97718e-06, No Iterations 0
smoothSolver:  Solving for Uy, Initial residual = 7.25034e-06, Final residual = 7.25034e-06, No Iterations 0
DICPCG:  Solving for p, Initial residual = 1.9405e-06, Final residual = 8.24376e-07, No Iterations 18
time step continuity errors : sum local = 1.19365e-10, global = -1.10665e-19, cumulative = -5.34388e-18
DICPCG:  Solving for p, Initial residual = 1.59166e-06, Final residual = 9.25999e-07, No Iterations 10
time step continuity errors : sum local = 1.34701e-10, global = -1.36898e-19, cumulative = -5.48078e-18
ExecutionTime = 397.66 s  ClockTime = 399 s

Time = 0.499375

Courant Number mean: 0.225833 max: 0.98166
smoothSolver:  Solving for Ux, Initial residual = 2.93124e-06, Final residual = 2.93124e-06, No Iterations 0
smoothSolver:  Solving for Uy, Initial residual = 7.39603e-06, Final residual = 7.39603e-06, No Iterations 0
DICPCG:  Solving for p, Initial residual = 1.72446e-06, Final residual = 9.75632e-07, No Iterations 5
time step continuity errors : sum local = 1.4253e-10, global = -8.40503e-20, cumulative = -5.56483e-18
DICPCG:  Solving for p, Initial residual = 1.76073e-06, Final residual = 9.19399e-07, No Iterations 22
time step continuity errors : sum local = 1.34096e-10, global = -7.92852e-20, cumulative = -5.64412e-18
ExecutionTime = 397.77 s  ClockTime = 399 s

Time = 0.5

Courant Number mean: 0.225833 max: 0.98166
smoothSolver:  Solving for Ux, Initial residual = 2.79472e-06, Final residual = 2.79472e-06, No Iterations 0
smoothSolver:  Solving for Uy, Initial residual = 7.85821e-06, Final residual = 7.85821e-06, No Iterations 0
DICPCG:  Solving for p, Initial residual = 1.73334e-06, Final residual = 9.50216e-07, No Iterations 12
time step continuity errors : sum local = 1.38795e-10, global = -5.56569e-20, cumulative = -5.69977e-18
DICPCG:  Solving for p, Initial residual = 1.77755e-06, Final residual = 9.92621e-07, No Iterations 22
time step continuity errors : sum local = 1.44253e-10, global = -6.3943e-20, cumulative = -5.76372e-18
ExecutionTime = 398.48 s  ClockTime = 400 s

End

