/*---------------------------------------------------------------------------*\
  =========                 |
  \\      /  F ield         | OpenFOAM: The Open Source CFD Toolbox
   \\    /   O peration     | Website:  https://openfoam.org
    \\  /    A nd           | Version:  7
     \\/     M anipulation  |
\*---------------------------------------------------------------------------*/
Build  : 7-49b2b3b8b082
Exec   : icoFoam
Date   : Mar 03 2021
Time   : 11:46:30
Host   : "c402-031.stampede2.tacc.utexas.edu"
PID    : 124487
I/O    : uncollated
Case   : /work/06798/steinjd/stampede2/coe-347/cavity
nProcs : 1
sigFpe : Enabling floating point exception trapping (FOAM_SIGFPE).
fileModificationChecking : Monitoring run-time modified files using timeStampMaster (fileModificationSkew 10)
allowSystemOperations : Allowing user-supplied system call operations

// * * * * * * * * * * * * * * * * * * * * * * * * * * * * * * * * * * * * * //
Create time

Create mesh for time = 0

Reading transportProperties

Reading field p

Reading field U

Reading/calculating face flux field phi


Starting time loop

Time = 0.0025

Courant Number mean: 0 max: 0
smoothSolver:  Solving for Ux, Initial residual = 1, Final residual = 9.41597e-06, No Iterations 35
smoothSolver:  Solving for Uy, Initial residual = 0, Final residual = 0, No Iterations 0
DICPCG:  Solving for p, Initial residual = 1, Final residual = 0.0484345, No Iterations 47
time step continuity errors : sum local = 0.000117943, global = -3.23262e-19, cumulative = -3.23262e-19
DICPCG:  Solving for p, Initial residual = 0.606789, Final residual = 6.61008e-07, No Iterations 69
time step continuity errors : sum local = 2.58566e-09, global = -1.08334e-19, cumulative = -4.31596e-19
ExecutionTime = 0.13 s  ClockTime = 0 s

Time = 0.005

Courant Number mean: 0.0806612 max: 0.702613
smoothSolver:  Solving for Ux, Initial residual = 0.138924, Final residual = 9.48915e-06, No Iterations 35
smoothSolver:  Solving for Uy, Initial residual = 0.303413, Final residual = 8.92948e-06, No Iterations 38
DICPCG:  Solving for p, Initial residual = 0.54579, Final residual = 0.0260253, No Iterations 23
time step continuity errors : sum local = 0.000116589, global = -1.31687e-19, cumulative = -5.63283e-19
DICPCG:  Solving for p, Initial residual = 0.476063, Final residual = 7.96646e-07, No Iterations 66
time step continuity errors : sum local = 2.86778e-09, global = 5.00793e-20, cumulative = -5.13204e-19
ExecutionTime = 0.17 s  ClockTime = 0 s

Time = 0.0075

Courant Number mean: 0.120855 max: 0.853399
smoothSolver:  Solving for Ux, Initial residual = 0.0423377, Final residual = 8.14072e-06, No Iterations 28
smoothSolver:  Solving for Uy, Initial residual = 0.11354, Final residual = 8.20595e-06, No Iterations 35
DICPCG:  Solving for p, Initial residual = 0.382431, Final residual = 0.018814, No Iterations 43
time step continuity errors : sum local = 5.4422e-05, global = -1.86777e-19, cumulative = -6.99981e-19
DICPCG:  Solving for p, Initial residual = 0.269335, Final residual = 6.22069e-07, No Iterations 65
time step continuity errors : sum local = 2.21288e-09, global = -6.43702e-20, cumulative = -7.64351e-19
ExecutionTime = 0.2 s  ClockTime = 0 s

Time = 0.01

Courant Number mean: 0.141629 max: 0.876287
smoothSolver:  Solving for Ux, Initial residual = 0.0274813, Final residual = 8.45599e-06, No Iterations 29
smoothSolver:  Solving for Uy, Initial residual = 0.0626325, Final residual = 7.78235e-06, No Iterations 33
DICPCG:  Solving for p, Initial residual = 0.187558, Final residual = 0.00632872, No Iterations 43
time step continuity errors : sum local = 1.58116e-05, global = 1.26e-19, cumulative = -6.38351e-19
DICPCG:  Solving for p, Initial residual = 0.14885, Final residual = 7.47777e-07, No Iterations 64
time step continuity errors : sum local = 1.99608e-09, global = 5.04628e-19, cumulative = -1.33723e-19
ExecutionTime = 0.22 s  ClockTime = 0 s

Time = 0.0125

Courant Number mean: 0.156414 max: 0.891687
smoothSolver:  Solving for Ux, Initial residual = 0.0169305, Final residual = 9.49894e-06, No Iterations 27
smoothSolver:  Solving for Uy, Initial residual = 0.0389649, Final residual = 7.95978e-06, No Iterations 32
DICPCG:  Solving for p, Initial residual = 0.100431, Final residual = 0.00474466, No Iterations 21
time step continuity errors : sum local = 1.32144e-05, global = 2.81035e-19, cumulative = 1.47312e-19
DICPCG:  Solving for p, Initial residual = 0.087041, Final residual = 7.73991e-07, No Iterations 63
time step continuity errors : sum local = 1.78835e-09, global = -4.34854e-19, cumulative = -2.87542e-19
ExecutionTime = 0.25 s  ClockTime = 0 s

Time = 0.015

Courant Number mean: 0.167629 max: 0.900084
smoothSolver:  Solving for Ux, Initial residual = 0.0131889, Final residual = 8.43191e-06, No Iterations 27
smoothSolver:  Solving for Uy, Initial residual = 0.0290416, Final residual = 7.69029e-06, No Iterations 31
DICPCG:  Solving for p, Initial residual = 0.0581192, Final residual = 0.00280985, No Iterations 43
time step continuity errors : sum local = 6.32531e-06, global = 1.66801e-19, cumulative = -1.20741e-19
DICPCG:  Solving for p, Initial residual = 0.0501075, Final residual = 6.65633e-07, No Iterations 63
time step continuity errors : sum local = 1.5589e-09, global = -5.65568e-19, cumulative = -6.86309e-19
ExecutionTime = 0.27 s  ClockTime = 0 s

Time = 0.0175

Courant Number mean: 0.176384 max: 0.905968
smoothSolver:  Solving for Ux, Initial residual = 0.00962039, Final residual = 8.12118e-06, No Iterations 26
smoothSolver:  Solving for Uy, Initial residual = 0.0230094, Final residual = 8.43447e-06, No Iterations 30
DICPCG:  Solving for p, Initial residual = 0.0406182, Final residual = 0.00184376, No Iterations 44
time step continuity errors : sum local = 4.08355e-06, global = -1.19383e-19, cumulative = -8.05692e-19
DICPCG:  Solving for p, Initial residual = 0.0357276, Final residual = 9.77126e-07, No Iterations 61
time step continuity errors : sum local = 2.1878e-09, global = -4.52825e-19, cumulative = -1.25852e-18
ExecutionTime = 0.31 s  ClockTime = 0 s

Time = 0.02

Courant Number mean: 0.183493 max: 0.910028
smoothSolver:  Solving for Ux, Initial residual = 0.00761814, Final residual = 8.98054e-06, No Iterations 25
smoothSolver:  Solving for Uy, Initial residual = 0.018157, Final residual = 8.85592e-06, No Iterations 29
DICPCG:  Solving for p, Initial residual = 0.0244674, Final residual = 0.00114408, No Iterations 43
time step continuity errors : sum local = 2.53047e-06, global = 6.12631e-19, cumulative = -6.45886e-19
DICPCG:  Solving for p, Initial residual = 0.0217975, Final residual = 7.43238e-07, No Iterations 61
time step continuity errors : sum local = 1.63702e-09, global = -1.45517e-19, cumulative = -7.91402e-19
ExecutionTime = 0.33 s  ClockTime = 0 s

Time = 0.0225

Courant Number mean: 0.189372 max: 0.913167
smoothSolver:  Solving for Ux, Initial residual = 0.00622505, Final residual = 9.93882e-06, No Iterations 24
smoothSolver:  Solving for Uy, Initial residual = 0.0148792, Final residual = 9.58915e-06, No Iterations 28
DICPCG:  Solving for p, Initial residual = 0.0206513, Final residual = 0.000896779, No Iterations 21
time step continuity errors : sum local = 2.19614e-06, global = -6.88524e-19, cumulative = -1.47993e-18
DICPCG:  Solving for p, Initial residual = 0.0186815, Final residual = 6.14463e-07, No Iterations 60
time step continuity errors : sum local = 1.35888e-09, global = -5.11795e-19, cumulative = -1.99172e-18
ExecutionTime = 0.35 s  ClockTime = 0 s

Time = 0.025

Courant Number mean: 0.194247 max: 0.915527
smoothSolver:  Solving for Ux, Initial residual = 0.00509342, Final residual = 8.30934e-06, No Iterations 24
smoothSolver:  Solving for Uy, Initial residual = 0.0126488, Final residual = 8.16727e-06, No Iterations 28
DICPCG:  Solving for p, Initial residual = 0.0175862, Final residual = 0.000654198, No Iterations 22
time step continuity errors : sum local = 1.95455e-06, global = -6.61951e-20, cumulative = -2.05792e-18
DICPCG:  Solving for p, Initial residual = 0.015628, Final residual = 9.08461e-07, No Iterations 56
time step continuity errors : sum local = 2.00521e-09, global = -4.81499e-19, cumulative = -2.53942e-18
ExecutionTime = 0.37 s  ClockTime = 0 s

Time = 0.0275

Courant Number mean: 0.198341 max: 0.917397
smoothSolver:  Solving for Ux, Initial residual = 0.00456241, Final residual = 7.68675e-06, No Iterations 24
smoothSolver:  Solving for Uy, Initial residual = 0.0103224, Final residual = 8.58475e-06, No Iterations 27
DICPCG:  Solving for p, Initial residual = 0.0166767, Final residual = 0.000788067, No Iterations 43
time step continuity errors : sum local = 1.74869e-06, global = 2.25396e-19, cumulative = -2.31402e-18
DICPCG:  Solving for p, Initial residual = 0.015104, Final residual = 6.70305e-07, No Iterations 61
time step continuity errors : sum local = 1.49467e-09, global = -3.89967e-19, cumulative = -2.70399e-18
ExecutionTime = 0.4 s  ClockTime = 0 s

Time = 0.03

Courant Number mean: 0.201801 max: 0.918911
smoothSolver:  Solving for Ux, Initial residual = 0.00367807, Final residual = 8.1353e-06, No Iterations 23
smoothSolver:  Solving for Uy, Initial residual = 0.00904617, Final residual = 9.95148e-06, No Iterations 26
DICPCG:  Solving for p, Initial residual = 0.0137993, Final residual = 0.000631386, No Iterations 21
time step continuity errors : sum local = 1.72753e-06, global = 4.68701e-20, cumulative = -2.65712e-18
DICPCG:  Solving for p, Initial residual = 0.0123235, Final residual = 6.91133e-07, No Iterations 58
time step continuity errors : sum local = 1.52241e-09, global = 6.68879e-20, cumulative = -2.59023e-18
ExecutionTime = 0.43 s  ClockTime = 0 s

Time = 0.0325

Courant Number mean: 0.20477 max: 0.920111
smoothSolver:  Solving for Ux, Initial residual = 0.00324907, Final residual = 9.56173e-06, No Iterations 22
smoothSolver:  Solving for Uy, Initial residual = 0.00756285, Final residual = 8.29021e-06, No Iterations 26
DICPCG:  Solving for p, Initial residual = 0.0116387, Final residual = 0.000520187, No Iterations 43
time step continuity errors : sum local = 1.15359e-06, global = 2.15749e-19, cumulative = -2.37448e-18
DICPCG:  Solving for p, Initial residual = 0.01054, Final residual = 7.84921e-07, No Iterations 59
time step continuity errors : sum local = 1.73776e-09, global = -5.58388e-19, cumulative = -2.93287e-18
ExecutionTime = 0.45 s  ClockTime = 0 s

Time = 0.035

Courant Number mean: 0.207329 max: 0.921106
smoothSolver:  Solving for Ux, Initial residual = 0.00269212, Final residual = 8.00674e-06, No Iterations 22
smoothSolver:  Solving for Uy, Initial residual = 0.00663955, Final residual = 9.56335e-06, No Iterations 25
DICPCG:  Solving for p, Initial residual = 0.00979848, Final residual = 0.000480349, No Iterations 19
time step continuity errors : sum local = 1.25745e-06, global = 1.66884e-19, cumulative = -2.76598e-18
DICPCG:  Solving for p, Initial residual = 0.00867326, Final residual = 8.69947e-07, No Iterations 57
time step continuity errors : sum local = 1.9151e-09, global = 7.08485e-19, cumulative = -2.0575e-18
ExecutionTime = 0.47 s  ClockTime = 0 s

Time = 0.0375

Courant Number mean: 0.209542 max: 0.921909
smoothSolver:  Solving for Ux, Initial residual = 0.0023629, Final residual = 9.26565e-06, No Iterations 21
smoothSolver:  Solving for Uy, Initial residual = 0.00567277, Final residual = 8.16231e-06, No Iterations 25
DICPCG:  Solving for p, Initial residual = 0.0081902, Final residual = 0.00034877, No Iterations 38
time step continuity errors : sum local = 7.71206e-07, global = 5.03205e-19, cumulative = -1.55429e-18
DICPCG:  Solving for p, Initial residual = 0.00732342, Final residual = 7.95968e-07, No Iterations 56
time step continuity errors : sum local = 1.75975e-09, global = -3.16934e-19, cumulative = -1.87123e-18
ExecutionTime = 0.5 s  ClockTime = 1 s

Time = 0.04

Courant Number mean: 0.211455 max: 0.922594
smoothSolver:  Solving for Ux, Initial residual = 0.0020034, Final residual = 7.94022e-06, No Iterations 21
smoothSolver:  Solving for Uy, Initial residual = 0.00496842, Final residual = 9.35716e-06, No Iterations 24
DICPCG:  Solving for p, Initial residual = 0.00605233, Final residual = 0.000293537, No Iterations 19
time step continuity errors : sum local = 7.05181e-07, global = -4.40701e-19, cumulative = -2.31193e-18
DICPCG:  Solving for p, Initial residual = 0.00535528, Final residual = 5.75834e-07, No Iterations 55
time step continuity errors : sum local = 1.26845e-09, global = -3.02252e-19, cumulative = -2.61418e-18
ExecutionTime = 0.52 s  ClockTime = 1 s

Time = 0.0425

Courant Number mean: 0.213116 max: 0.923147
smoothSolver:  Solving for Ux, Initial residual = 0.00174057, Final residual = 9.06428e-06, No Iterations 20
smoothSolver:  Solving for Uy, Initial residual = 0.00430278, Final residual = 8.12041e-06, No Iterations 24
DICPCG:  Solving for p, Initial residual = 0.00567617, Final residual = 0.000177456, No Iterations 37
time step continuity errors : sum local = 3.91327e-07, global = -1.9204e-19, cumulative = -2.80622e-18
DICPCG:  Solving for p, Initial residual = 0.00506968, Final residual = 9.44338e-07, No Iterations 55
time step continuity errors : sum local = 2.07677e-09, global = -4.45287e-19, cumulative = -3.25151e-18
ExecutionTime = 0.54 s  ClockTime = 1 s

Time = 0.045

Courant Number mean: 0.214557 max: 0.923621
smoothSolver:  Solving for Ux, Initial residual = 0.00152004, Final residual = 7.98633e-06, No Iterations 20
smoothSolver:  Solving for Uy, Initial residual = 0.0037439, Final residual = 9.20966e-06, No Iterations 23
DICPCG:  Solving for p, Initial residual = 0.00453056, Final residual = 0.00020762, No Iterations 17
time step continuity errors : sum local = 4.86492e-07, global = -5.38339e-20, cumulative = -3.30534e-18
DICPCG:  Solving for p, Initial residual = 0.00404675, Final residual = 9.46608e-07, No Iterations 56
time step continuity errors : sum local = 2.09223e-09, global = -2.71713e-19, cumulative = -3.57705e-18
ExecutionTime = 0.57 s  ClockTime = 1 s

Time = 0.0475

Courant Number mean: 0.215812 max: 0.924019
smoothSolver:  Solving for Ux, Initial residual = 0.00130388, Final residual = 8.96856e-06, No Iterations 19
smoothSolver:  Solving for Uy, Initial residual = 0.00332133, Final residual = 8.15009e-06, No Iterations 23
DICPCG:  Solving for p, Initial residual = 0.0040748, Final residual = 0.000192639, No Iterations 20
time step continuity errors : sum local = 4.28546e-07, global = -1.30126e-20, cumulative = -3.59007e-18
DICPCG:  Solving for p, Initial residual = 0.003635, Final residual = 9.55661e-07, No Iterations 54
time step continuity errors : sum local = 2.10987e-09, global = -1.78666e-19, cumulative = -3.76873e-18
ExecutionTime = 0.59 s  ClockTime = 1 s

Time = 0.05

Courant Number mean: 0.216909 max: 0.924355
smoothSolver:  Solving for Ux, Initial residual = 0.00115108, Final residual = 7.9546e-06, No Iterations 19
smoothSolver:  Solving for Uy, Initial residual = 0.00286583, Final residual = 9.16369e-06, No Iterations 22
DICPCG:  Solving for p, Initial residual = 0.00356416, Final residual = 0.00014986, No Iterations 17
time step continuity errors : sum local = 3.86645e-07, global = -4.55963e-19, cumulative = -4.2247e-18
DICPCG:  Solving for p, Initial residual = 0.00317285, Final residual = 9.22858e-07, No Iterations 54
time step continuity errors : sum local = 2.03468e-09, global = -2.61642e-19, cumulative = -4.48634e-18
ExecutionTime = 0.66 s  ClockTime = 1 s

Time = 0.0525

Courant Number mean: 0.217865 max: 0.924634
smoothSolver:  Solving for Ux, Initial residual = 0.000993838, Final residual = 8.9315e-06, No Iterations 18
smoothSolver:  Solving for Uy, Initial residual = 0.00258256, Final residual = 8.20653e-06, No Iterations 22
DICPCG:  Solving for p, Initial residual = 0.00331904, Final residual = 8.35365e-05, No Iterations 37
time step continuity errors : sum local = 1.84163e-07, global = -1.01692e-19, cumulative = -4.58803e-18
DICPCG:  Solving for p, Initial residual = 0.00295337, Final residual = 8.38437e-07, No Iterations 54
time step continuity errors : sum local = 1.85408e-09, global = -1.41344e-19, cumulative = -4.72937e-18
ExecutionTime = 0.69 s  ClockTime = 1 s

Time = 0.055

Courant Number mean: 0.218702 max: 0.924879
smoothSolver:  Solving for Ux, Initial residual = 0.000893909, Final residual = 8.07573e-06, No Iterations 18
smoothSolver:  Solving for Uy, Initial residual = 0.00219824, Final residual = 9.13112e-06, No Iterations 21
DICPCG:  Solving for p, Initial residual = 0.0025737, Final residual = 8.43796e-05, No Iterations 42
time step continuity errors : sum local = 1.86628e-07, global = -3.06196e-19, cumulative = -5.03557e-18
DICPCG:  Solving for p, Initial residual = 0.00229635, Final residual = 7.02262e-07, No Iterations 54
time step continuity errors : sum local = 1.55832e-09, global = 5.53177e-20, cumulative = -4.98025e-18
ExecutionTime = 0.71 s  ClockTime = 1 s

Time = 0.0575

Courant Number mean: 0.219433 max: 0.925085
smoothSolver:  Solving for Ux, Initial residual = 0.000780518, Final residual = 9.18804e-06, No Iterations 17
smoothSolver:  Solving for Uy, Initial residual = 0.00193947, Final residual = 8.08371e-06, No Iterations 21
DICPCG:  Solving for p, Initial residual = 0.00231601, Final residual = 0.000113424, No Iterations 16
time step continuity errors : sum local = 2.8009e-07, global = -7.9125e-20, cumulative = -5.05938e-18
DICPCG:  Solving for p, Initial residual = 0.00208289, Final residual = 6.38803e-07, No Iterations 53
time step continuity errors : sum local = 1.41032e-09, global = 4.92948e-20, cumulative = -5.01008e-18
ExecutionTime = 0.73 s  ClockTime = 1 s

Time = 0.06

Courant Number mean: 0.220075 max: 0.925265
smoothSolver:  Solving for Ux, Initial residual = 0.000676439, Final residual = 7.97694e-06, No Iterations 17
smoothSolver:  Solving for Uy, Initial residual = 0.00174318, Final residual = 9.38973e-06, No Iterations 20
DICPCG:  Solving for p, Initial residual = 0.00209921, Final residual = 0.000101076, No Iterations 36
time step continuity errors : sum local = 2.23573e-07, global = 2.13516e-19, cumulative = -4.79657e-18
DICPCG:  Solving for p, Initial residual = 0.00187888, Final residual = 9.15999e-07, No Iterations 53
time step continuity errors : sum local = 2.02013e-09, global = 2.23406e-19, cumulative = -4.57316e-18
ExecutionTime = 0.75 s  ClockTime = 1 s

Time = 0.0625

Courant Number mean: 0.220639 max: 0.925418
smoothSolver:  Solving for Ux, Initial residual = 0.000606698, Final residual = 9.31935e-06, No Iterations 16
smoothSolver:  Solving for Uy, Initial residual = 0.00150004, Final residual = 8.11472e-06, No Iterations 20
DICPCG:  Solving for p, Initial residual = 0.00171589, Final residual = 7.55184e-05, No Iterations 17
time step continuity errors : sum local = 2.25073e-07, global = 4.46502e-19, cumulative = -4.12666e-18
DICPCG:  Solving for p, Initial residual = 0.00154444, Final residual = 7.91197e-07, No Iterations 53
time step continuity errors : sum local = 1.75499e-09, global = -1.3602e-19, cumulative = -4.26268e-18
ExecutionTime = 0.77 s  ClockTime = 1 s

Time = 0.065

Courant Number mean: 0.221133 max: 0.92555
smoothSolver:  Solving for Ux, Initial residual = 0.000523479, Final residual = 7.9918e-06, No Iterations 16
smoothSolver:  Solving for Uy, Initial residual = 0.001376, Final residual = 9.56852e-06, No Iterations 19
DICPCG:  Solving for p, Initial residual = 0.00180367, Final residual = 7.04965e-05, No Iterations 37
time step continuity errors : sum local = 1.54953e-07, global = -1.49161e-19, cumulative = -4.41184e-18
DICPCG:  Solving for p, Initial residual = 0.00160381, Final residual = 6.18968e-07, No Iterations 54
time step continuity errors : sum local = 1.37145e-09, global = -1.15593e-19, cumulative = -4.52743e-18
ExecutionTime = 0.8 s  ClockTime = 1 s

Time = 0.0675

Courant Number mean: 0.221567 max: 0.925664
smoothSolver:  Solving for Ux, Initial residual = 0.000475197, Final residual = 9.49238e-06, No Iterations 15
smoothSolver:  Solving for Uy, Initial residual = 0.00116908, Final residual = 8.18809e-06, No Iterations 19
DICPCG:  Solving for p, Initial residual = 0.00133192, Final residual = 6.53776e-05, No Iterations 38
time step continuity errors : sum local = 1.45602e-07, global = 4.37889e-21, cumulative = -4.52305e-18
DICPCG:  Solving for p, Initial residual = 0.00118025, Final residual = 8.0707e-07, No Iterations 53
time step continuity errors : sum local = 1.78461e-09, global = -3.28716e-19, cumulative = -4.85177e-18
ExecutionTime = 0.82 s  ClockTime = 1 s

Time = 0.07

Courant Number mean: 0.22195 max: 0.925767
smoothSolver:  Solving for Ux, Initial residual = 0.000409725, Final residual = 8.22034e-06, No Iterations 15
smoothSolver:  Solving for Uy, Initial residual = 0.00104715, Final residual = 9.55933e-06, No Iterations 18
DICPCG:  Solving for p, Initial residual = 0.00115998, Final residual = 5.16845e-05, No Iterations 15
time step continuity errors : sum local = 1.2656e-07, global = 3.16086e-20, cumulative = -4.82016e-18
DICPCG:  Solving for p, Initial residual = 0.00105057, Final residual = 4.5935e-07, No Iterations 53
time step continuity errors : sum local = 1.01311e-09, global = -3.02619e-19, cumulative = -5.12278e-18
ExecutionTime = 0.83 s  ClockTime = 1 s

Time = 0.0725

Courant Number mean: 0.222286 max: 0.925853
smoothSolver:  Solving for Ux, Initial residual = 0.000369533, Final residual = 9.60763e-06, No Iterations 14
smoothSolver:  Solving for Uy, Initial residual = 0.000908775, Final residual = 8.30076e-06, No Iterations 18
DICPCG:  Solving for p, Initial residual = 0.00106991, Final residual = 2.75352e-05, No Iterations 37
time step continuity errors : sum local = 6.08677e-08, global = -4.12256e-19, cumulative = -5.53504e-18
DICPCG:  Solving for p, Initial residual = 0.000956482, Final residual = 9.19538e-07, No Iterations 52
time step continuity errors : sum local = 2.03199e-09, global = -5.62741e-20, cumulative = -5.59131e-18
ExecutionTime = 0.85 s  ClockTime = 1 s

Time = 0.075

Courant Number mean: 0.222582 max: 0.925925
smoothSolver:  Solving for Ux, Initial residual = 0.000323983, Final residual = 8.43948e-06, No Iterations 14
smoothSolver:  Solving for Uy, Initial residual = 0.000806814, Final residual = 9.59088e-06, No Iterations 17
DICPCG:  Solving for p, Initial residual = 0.000880709, Final residual = 3.69968e-05, No Iterations 15
time step continuity errors : sum local = 8.37396e-08, global = 2.45006e-19, cumulative = -5.34631e-18
DICPCG:  Solving for p, Initial residual = 0.00078867, Final residual = 7.83564e-07, No Iterations 31
time step continuity errors : sum local = 2.39783e-09, global = -1.0607e-19, cumulative = -5.45238e-18
ExecutionTime = 0.88 s  ClockTime = 1 s

Time = 0.0775

Courant Number mean: 0.222842 max: 0.92599
smoothSolver:  Solving for Ux, Initial residual = 0.0002867, Final residual = 9.7086e-06, No Iterations 13
smoothSolver:  Solving for Uy, Initial residual = 0.000714105, Final residual = 8.48927e-06, No Iterations 17
DICPCG:  Solving for p, Initial residual = 0.000805041, Final residual = 2.68389e-05, No Iterations 15
time step continuity errors : sum local = 6.36697e-08, global = -2.66667e-19, cumulative = -5.71904e-18
DICPCG:  Solving for p, Initial residual = 0.000720248, Final residual = 9.3934e-07, No Iterations 51
time step continuity errors : sum local = 2.0784e-09, global = -4.93217e-19, cumulative = -6.21226e-18
ExecutionTime = 0.9 s  ClockTime = 1 s

Time = 0.08

Courant Number mean: 0.223071 max: 0.926047
smoothSolver:  Solving for Ux, Initial residual = 0.000253129, Final residual = 8.58508e-06, No Iterations 13
smoothSolver:  Solving for Uy, Initial residual = 0.00063368, Final residual = 9.76259e-06, No Iterations 16
DICPCG:  Solving for p, Initial residual = 0.00066868, Final residual = 3.22758e-05, No Iterations 16
time step continuity errors : sum local = 8.48156e-08, global = 6.55022e-21, cumulative = -6.20571e-18
DICPCG:  Solving for p, Initial residual = 0.000595897, Final residual = 5.981e-07, No Iterations 52
time step continuity errors : sum local = 1.32198e-09, global = -1.67959e-19, cumulative = -6.37367e-18
ExecutionTime = 0.92 s  ClockTime = 1 s

Time = 0.0825

Courant Number mean: 0.223273 max: 0.926096
smoothSolver:  Solving for Ux, Initial residual = 0.000227144, Final residual = 9.9561e-06, No Iterations 12
smoothSolver:  Solving for Uy, Initial residual = 0.00055843, Final residual = 8.59869e-06, No Iterations 16
DICPCG:  Solving for p, Initial residual = 0.000708706, Final residual = 2.62697e-05, No Iterations 42
time step continuity errors : sum local = 5.81223e-08, global = 1.27748e-19, cumulative = -6.24592e-18
DICPCG:  Solving for p, Initial residual = 0.000638238, Final residual = 6.93936e-07, No Iterations 52
time step continuity errors : sum local = 1.53277e-09, global = 1.23436e-19, cumulative = -6.12249e-18
ExecutionTime = 0.94 s  ClockTime = 1 s

Time = 0.085

Courant Number mean: 0.223451 max: 0.92614
smoothSolver:  Solving for Ux, Initial residual = 0.000199157, Final residual = 8.76817e-06, No Iterations 12
smoothSolver:  Solving for Uy, Initial residual = 0.000496524, Final residual = 9.93173e-06, No Iterations 15
DICPCG:  Solving for p, Initial residual = 0.000582552, Final residual = 2.8548e-05, No Iterations 15
time step continuity errors : sum local = 7.39025e-08, global = 5.0276e-19, cumulative = -5.61973e-18
DICPCG:  Solving for p, Initial residual = 0.000519067, Final residual = 8.61848e-07, No Iterations 48
time step continuity errors : sum local = 1.91022e-09, global = -1.14378e-19, cumulative = -5.7341e-18
ExecutionTime = 0.95 s  ClockTime = 1 s

Time = 0.0875

Courant Number mean: 0.223609 max: 0.926176
smoothSolver:  Solving for Ux, Initial residual = 0.000179692, Final residual = 7.87592e-06, No Iterations 12
smoothSolver:  Solving for Uy, Initial residual = 0.00043576, Final residual = 8.71595e-06, No Iterations 15
DICPCG:  Solving for p, Initial residual = 0.000545729, Final residual = 2.46557e-05, No Iterations 36
time step continuity errors : sum local = 5.46686e-08, global = 4.078e-20, cumulative = -5.69332e-18
DICPCG:  Solving for p, Initial residual = 0.00049049, Final residual = 9.31693e-07, No Iterations 51
time step continuity errors : sum local = 2.04966e-09, global = -2.97428e-19, cumulative = -5.99075e-18
ExecutionTime = 0.97 s  ClockTime = 1 s

Time = 0.09

Courant Number mean: 0.223748 max: 0.926209
smoothSolver:  Solving for Ux, Initial residual = 0.000156652, Final residual = 8.94706e-06, No Iterations 11
smoothSolver:  Solving for Uy, Initial residual = 0.000389528, Final residual = 7.80598e-06, No Iterations 15
DICPCG:  Solving for p, Initial residual = 0.000430182, Final residual = 2.14845e-05, No Iterations 16
time step continuity errors : sum local = 5.69356e-08, global = -1.99082e-19, cumulative = -6.18983e-18
DICPCG:  Solving for p, Initial residual = 0.000383238, Final residual = 6.59116e-07, No Iterations 51
time step continuity errors : sum local = 1.45812e-09, global = 1.67659e-19, cumulative = -6.02217e-18
ExecutionTime = 0.99 s  ClockTime = 1 s

Time = 0.0925

Courant Number mean: 0.223871 max: 0.926238
smoothSolver:  Solving for Ux, Initial residual = 0.000141141, Final residual = 8.04045e-06, No Iterations 11
smoothSolver:  Solving for Uy, Initial residual = 0.000343813, Final residual = 8.9158e-06, No Iterations 14
DICPCG:  Solving for p, Initial residual = 0.000418685, Final residual = 1.91904e-05, No Iterations 37
time step continuity errors : sum local = 4.26016e-08, global = -3.7675e-19, cumulative = -6.39892e-18
DICPCG:  Solving for p, Initial residual = 0.000374977, Final residual = 6.48653e-07, No Iterations 51
time step continuity errors : sum local = 1.43022e-09, global = -5.16869e-19, cumulative = -6.91579e-18
ExecutionTime = 1.01 s  ClockTime = 1 s

Time = 0.095

Courant Number mean: 0.223979 max: 0.926263
smoothSolver:  Solving for Ux, Initial residual = 0.00012343, Final residual = 9.16371e-06, No Iterations 10
smoothSolver:  Solving for Uy, Initial residual = 0.000306965, Final residual = 7.98431e-06, No Iterations 14
DICPCG:  Solving for p, Initial residual = 0.000327507, Final residual = 1.4316e-05, No Iterations 42
time step continuity errors : sum local = 3.16523e-08, global = 1.32297e-19, cumulative = -6.7835e-18
DICPCG:  Solving for p, Initial residual = 0.000294445, Final residual = 6.33915e-07, No Iterations 51
time step continuity errors : sum local = 1.39774e-09, global = -2.09173e-20, cumulative = -6.80441e-18
ExecutionTime = 1.03 s  ClockTime = 1 s

Time = 0.0975

Courant Number mean: 0.224074 max: 0.926286
smoothSolver:  Solving for Ux, Initial residual = 0.000109955, Final residual = 8.19041e-06, No Iterations 10
smoothSolver:  Solving for Uy, Initial residual = 0.000271508, Final residual = 9.16243e-06, No Iterations 13
DICPCG:  Solving for p, Initial residual = 0.000297632, Final residual = 1.47e-05, No Iterations 19
time step continuity errors : sum local = 3.63887e-08, global = 1.54476e-19, cumulative = -6.64994e-18
DICPCG:  Solving for p, Initial residual = 0.000267978, Final residual = 8.41297e-07, No Iterations 47
time step continuity errors : sum local = 1.85255e-09, global = -2.13568e-19, cumulative = -6.8635e-18
ExecutionTime = 1.04 s  ClockTime = 1 s

Time = 0.1

Courant Number mean: 0.224158 max: 0.926304
smoothSolver:  Solving for Ux, Initial residual = 9.61513e-05, Final residual = 9.29557e-06, No Iterations 9
smoothSolver:  Solving for Uy, Initial residual = 0.000245889, Final residual = 8.25922e-06, No Iterations 13
DICPCG:  Solving for p, Initial residual = 0.000295976, Final residual = 1.26847e-05, No Iterations 36
time step continuity errors : sum local = 2.80058e-08, global = -3.63132e-19, cumulative = -7.22664e-18
DICPCG:  Solving for p, Initial residual = 0.00026729, Final residual = 9.0181e-07, No Iterations 50
time step continuity errors : sum local = 1.99005e-09, global = 4.0567e-19, cumulative = -6.82097e-18
ExecutionTime = 1.12 s  ClockTime = 1 s

Time = 0.1025

Courant Number mean: 0.224233 max: 0.926322
smoothSolver:  Solving for Ux, Initial residual = 8.7711e-05, Final residual = 8.48655e-06, No Iterations 9
smoothSolver:  Solving for Uy, Initial residual = 0.000214239, Final residual = 9.35785e-06, No Iterations 12
DICPCG:  Solving for p, Initial residual = 0.00022997, Final residual = 7.73217e-06, No Iterations 22
time step continuity errors : sum local = 2.18493e-08, global = -6.98399e-20, cumulative = -6.89081e-18
DICPCG:  Solving for p, Initial residual = 0.000207338, Final residual = 7.0714e-07, No Iterations 50
time step continuity errors : sum local = 1.55824e-09, global = -3.75209e-19, cumulative = -7.26602e-18
ExecutionTime = 1.14 s  ClockTime = 1 s

Time = 0.105

Courant Number mean: 0.224298 max: 0.926336
smoothSolver:  Solving for Ux, Initial residual = 7.68328e-05, Final residual = 9.61828e-06, No Iterations 8
smoothSolver:  Solving for Uy, Initial residual = 0.000194581, Final residual = 8.4694e-06, No Iterations 12
DICPCG:  Solving for p, Initial residual = 0.000240034, Final residual = 8.2035e-06, No Iterations 37
time step continuity errors : sum local = 1.8189e-08, global = 3.67537e-19, cumulative = -6.89848e-18
DICPCG:  Solving for p, Initial residual = 0.000221413, Final residual = 9.01885e-07, No Iterations 48
time step continuity errors : sum local = 2.00713e-09, global = -1.83215e-19, cumulative = -7.08169e-18
ExecutionTime = 1.15 s  ClockTime = 1 s

Time = 0.1075

Courant Number mean: 0.224356 max: 0.92635
smoothSolver:  Solving for Ux, Initial residual = 6.99248e-05, Final residual = 8.77345e-06, No Iterations 8
smoothSolver:  Solving for Uy, Initial residual = 0.000170044, Final residual = 9.6297e-06, No Iterations 11
DICPCG:  Solving for p, Initial residual = 0.000194768, Final residual = 6.06607e-06, No Iterations 22
time step continuity errors : sum local = 1.79302e-08, global = 5.07517e-19, cumulative = -6.57418e-18
DICPCG:  Solving for p, Initial residual = 0.000176149, Final residual = 9.80378e-07, No Iterations 48
time step continuity errors : sum local = 2.16789e-09, global = 6.12108e-19, cumulative = -5.96207e-18
ExecutionTime = 1.17 s  ClockTime = 1 s

Time = 0.11

Courant Number mean: 0.224407 max: 0.926361
smoothSolver:  Solving for Ux, Initial residual = 6.13961e-05, Final residual = 9.96335e-06, No Iterations 7
smoothSolver:  Solving for Uy, Initial residual = 0.000155154, Final residual = 8.74731e-06, No Iterations 11
DICPCG:  Solving for p, Initial residual = 0.000210554, Final residual = 6.1097e-06, No Iterations 37
time step continuity errors : sum local = 1.34323e-08, global = 6.45196e-19, cumulative = -5.31687e-18
DICPCG:  Solving for p, Initial residual = 0.000196185, Final residual = 8.55318e-07, No Iterations 48
time step continuity errors : sum local = 1.89527e-09, global = -6.99433e-19, cumulative = -6.01631e-18
ExecutionTime = 1.19 s  ClockTime = 1 s

Time = 0.1125

Courant Number mean: 0.224452 max: 0.926371
smoothSolver:  Solving for Ux, Initial residual = 5.62823e-05, Final residual = 9.16066e-06, No Iterations 7
smoothSolver:  Solving for Uy, Initial residual = 0.000135211, Final residual = 9.91404e-06, No Iterations 10
DICPCG:  Solving for p, Initial residual = 0.000162063, Final residual = 7.46525e-06, No Iterations 19
time step continuity errors : sum local = 1.7916e-08, global = 1.27986e-19, cumulative = -5.88832e-18
DICPCG:  Solving for p, Initial residual = 0.00014929, Final residual = 8.22997e-07, No Iterations 47
time step continuity errors : sum local = 1.81609e-09, global = 3.47509e-19, cumulative = -5.54081e-18
ExecutionTime = 1.21 s  ClockTime = 1 s

Time = 0.115

Courant Number mean: 0.224491 max: 0.92638
smoothSolver:  Solving for Ux, Initial residual = 4.93998e-05, Final residual = 8.06607e-06, No Iterations 7
smoothSolver:  Solving for Uy, Initial residual = 0.000123038, Final residual = 9.02075e-06, No Iterations 10
DICPCG:  Solving for p, Initial residual = 0.00015323, Final residual = 7.49796e-06, No Iterations 36
time step continuity errors : sum local = 1.64861e-08, global = 5.49041e-21, cumulative = -5.53532e-18
DICPCG:  Solving for p, Initial residual = 0.000140701, Final residual = 9.75493e-07, No Iterations 46
time step continuity errors : sum local = 2.16595e-09, global = -3.98592e-19, cumulative = -5.93391e-18
ExecutionTime = 1.23 s  ClockTime = 1 s

Time = 0.1175

Courant Number mean: 0.224527 max: 0.926387
smoothSolver:  Solving for Ux, Initial residual = 4.49126e-05, Final residual = 9.50039e-06, No Iterations 6
smoothSolver:  Solving for Uy, Initial residual = 0.000108661, Final residual = 7.98758e-06, No Iterations 10
DICPCG:  Solving for p, Initial residual = 0.000166838, Final residual = 7.5381e-06, No Iterations 20
time step continuity errors : sum local = 1.82763e-08, global = 1.42565e-19, cumulative = -5.79135e-18
DICPCG:  Solving for p, Initial residual = 0.000158233, Final residual = 8.82024e-07, No Iterations 27
time step continuity errors : sum local = 2.16645e-09, global = -3.65231e-19, cumulative = -6.15658e-18
ExecutionTime = 1.24 s  ClockTime = 1 s

Time = 0.12

Courant Number mean: 0.224558 max: 0.926395
smoothSolver:  Solving for Ux, Initial residual = 4.08382e-05, Final residual = 8.63395e-06, No Iterations 6
smoothSolver:  Solving for Uy, Initial residual = 9.66619e-05, Final residual = 9.1938e-06, No Iterations 9
DICPCG:  Solving for p, Initial residual = 0.000126961, Final residual = 6.34712e-06, No Iterations 20
time step continuity errors : sum local = 1.51904e-08, global = -4.85488e-19, cumulative = -6.64207e-18
DICPCG:  Solving for p, Initial residual = 0.000117791, Final residual = 8.13303e-07, No Iterations 46
time step continuity errors : sum local = 1.79654e-09, global = -1.98492e-19, cumulative = -6.84056e-18
ExecutionTime = 1.26 s  ClockTime = 1 s

Time = 0.1225

Courant Number mean: 0.224586 max: 0.926401
smoothSolver:  Solving for Ux, Initial residual = 3.59318e-05, Final residual = 9.87024e-06, No Iterations 5
smoothSolver:  Solving for Uy, Initial residual = 8.87413e-05, Final residual = 8.42544e-06, No Iterations 9
DICPCG:  Solving for p, Initial residual = 0.0001578, Final residual = 6.37464e-06, No Iterations 36
time step continuity errors : sum local = 1.42639e-08, global = 2.30318e-19, cumulative = -6.61024e-18
DICPCG:  Solving for p, Initial residual = 0.000150737, Final residual = 7.85602e-07, No Iterations 46
time step continuity errors : sum local = 1.73965e-09, global = -2.21028e-19, cumulative = -6.83127e-18
ExecutionTime = 1.27 s  ClockTime = 1 s

Time = 0.125

Courant Number mean: 0.22461 max: 0.926406
smoothSolver:  Solving for Ux, Initial residual = 3.35107e-05, Final residual = 9.17676e-06, No Iterations 5
smoothSolver:  Solving for Uy, Initial residual = 7.8056e-05, Final residual = 9.59652e-06, No Iterations 8
DICPCG:  Solving for p, Initial residual = 0.000118262, Final residual = 5.45923e-06, No Iterations 21
time step continuity errors : sum local = 1.46525e-08, global = 1.94051e-19, cumulative = -6.63722e-18
DICPCG:  Solving for p, Initial residual = 0.000112958, Final residual = 9.21682e-07, No Iterations 25
time step continuity errors : sum local = 2.8063e-09, global = -2.15222e-19, cumulative = -6.85244e-18
ExecutionTime = 1.29 s  ClockTime = 1 s

Time = 0.1275

Courant Number mean: 0.224631 max: 0.92641
smoothSolver:  Solving for Ux, Initial residual = 3.0361e-05, Final residual = 8.32332e-06, No Iterations 5
smoothSolver:  Solving for Uy, Initial residual = 7.02352e-05, Final residual = 8.65209e-06, No Iterations 8
DICPCG:  Solving for p, Initial residual = 0.000108773, Final residual = 4.90262e-06, No Iterations 21
time step continuity errors : sum local = 1.326e-08, global = -8.64042e-20, cumulative = -6.93885e-18
DICPCG:  Solving for p, Initial residual = 0.000101598, Final residual = 7.034e-07, No Iterations 46
time step continuity errors : sum local = 1.55846e-09, global = 6.8366e-19, cumulative = -6.25519e-18
ExecutionTime = 1.3 s  ClockTime = 1 s

Time = 0.13

Courant Number mean: 0.22465 max: 0.926415
smoothSolver:  Solving for Ux, Initial residual = 2.66734e-05, Final residual = 9.44275e-06, No Iterations 4
smoothSolver:  Solving for Uy, Initial residual = 6.60752e-05, Final residual = 8.08381e-06, No Iterations 8
DICPCG:  Solving for p, Initial residual = 0.000146936, Final residual = 5.45847e-06, No Iterations 36
time step continuity errors : sum local = 1.21282e-08, global = 8.62894e-19, cumulative = -5.39229e-18
DICPCG:  Solving for p, Initial residual = 0.000141278, Final residual = 8.62929e-07, No Iterations 41
time step continuity errors : sum local = 1.94144e-09, global = 2.58215e-19, cumulative = -5.13408e-18
ExecutionTime = 1.32 s  ClockTime = 1 s

Time = 0.1325

Courant Number mean: 0.224667 max: 0.926419
smoothSolver:  Solving for Ux, Initial residual = 2.53323e-05, Final residual = 8.95664e-06, No Iterations 4
smoothSolver:  Solving for Uy, Initial residual = 5.74771e-05, Final residual = 9.10159e-06, No Iterations 7
DICPCG:  Solving for p, Initial residual = 0.000103903, Final residual = 4.8847e-06, No Iterations 14
time step continuity errors : sum local = 1.32269e-08, global = -6.61905e-19, cumulative = -5.79598e-18
DICPCG:  Solving for p, Initial residual = 0.000100689, Final residual = 8.53096e-07, No Iterations 25
time step continuity errors : sum local = 2.59671e-09, global = 6.92298e-20, cumulative = -5.72675e-18
ExecutionTime = 1.34 s  ClockTime = 1 s

Time = 0.135

Courant Number mean: 0.224682 max: 0.926422
smoothSolver:  Solving for Ux, Initial residual = 2.30961e-05, Final residual = 8.19611e-06, No Iterations 4
smoothSolver:  Solving for Uy, Initial residual = 5.19055e-05, Final residual = 8.24789e-06, No Iterations 7
DICPCG:  Solving for p, Initial residual = 9.91479e-05, Final residual = 3.95646e-06, No Iterations 20
time step continuity errors : sum local = 1.01502e-08, global = 1.71929e-19, cumulative = -5.55482e-18
DICPCG:  Solving for p, Initial residual = 9.3475e-05, Final residual = 8.13356e-07, No Iterations 45
time step continuity errors : sum local = 1.80555e-09, global = -1.04876e-19, cumulative = -5.6597e-18
ExecutionTime = 1.35 s  ClockTime = 1 s

Time = 0.1375

Courant Number mean: 0.224695 max: 0.926425
smoothSolver:  Solving for Ux, Initial residual = 2.03872e-05, Final residual = 9.35525e-06, No Iterations 3
smoothSolver:  Solving for Uy, Initial residual = 4.90912e-05, Final residual = 7.77737e-06, No Iterations 7
DICPCG:  Solving for p, Initial residual = 0.000136117, Final residual = 5.80275e-06, No Iterations 35
time step continuity errors : sum local = 1.29835e-08, global = 6.38066e-20, cumulative = -5.59589e-18
DICPCG:  Solving for p, Initial residual = 0.000132237, Final residual = 9.26645e-07, No Iterations 45
time step continuity errors : sum local = 2.04546e-09, global = -6.00874e-19, cumulative = -6.19677e-18
ExecutionTime = 1.37 s  ClockTime = 1 s

Time = 0.14

Courant Number mean: 0.224707 max: 0.926428
smoothSolver:  Solving for Ux, Initial residual = 1.95653e-05, Final residual = 8.93829e-06, No Iterations 3
smoothSolver:  Solving for Uy, Initial residual = 4.30895e-05, Final residual = 8.79835e-06, No Iterations 6
DICPCG:  Solving for p, Initial residual = 9.62847e-05, Final residual = 4.14347e-06, No Iterations 35
time step continuity errors : sum local = 9.29929e-09, global = 9.84707e-20, cumulative = -6.0983e-18
DICPCG:  Solving for p, Initial residual = 9.38349e-05, Final residual = 9.5797e-07, No Iterations 40
time step continuity errors : sum local = 2.16167e-09, global = -4.79351e-20, cumulative = -6.14623e-18
ExecutionTime = 1.39 s  ClockTime = 1 s

Time = 0.1425

Courant Number mean: 0.224717 max: 0.92643
smoothSolver:  Solving for Ux, Initial residual = 1.77315e-05, Final residual = 8.15533e-06, No Iterations 3
smoothSolver:  Solving for Uy, Initial residual = 3.96266e-05, Final residual = 8.15435e-06, No Iterations 6
DICPCG:  Solving for p, Initial residual = 8.91268e-05, Final residual = 3.51148e-06, No Iterations 35
time step continuity errors : sum local = 7.76322e-09, global = 1.20086e-19, cumulative = -6.02614e-18
DICPCG:  Solving for p, Initial residual = 8.66868e-05, Final residual = 9.98031e-07, No Iterations 39
time step continuity errors : sum local = 2.22913e-09, global = 2.45326e-19, cumulative = -5.78082e-18
ExecutionTime = 1.4 s  ClockTime = 1 s

Time = 0.145

Courant Number mean: 0.224726 max: 0.926431
smoothSolver:  Solving for Ux, Initial residual = 1.62573e-05, Final residual = 9.67493e-06, No Iterations 2
smoothSolver:  Solving for Uy, Initial residual = 3.64375e-05, Final residual = 9.71963e-06, No Iterations 5
DICPCG:  Solving for p, Initial residual = 0.000107338, Final residual = 4.51769e-06, No Iterations 35
time step continuity errors : sum local = 1.01457e-08, global = 1.53447e-19, cumulative = -5.62737e-18
DICPCG:  Solving for p, Initial residual = 0.000105702, Final residual = 8.7594e-07, No Iterations 44
time step continuity errors : sum local = 1.93174e-09, global = 1.59734e-19, cumulative = -5.46764e-18
ExecutionTime = 1.41 s  ClockTime = 1 s

Time = 0.1475

Courant Number mean: 0.224734 max: 0.926433
smoothSolver:  Solving for Ux, Initial residual = 1.54584e-05, Final residual = 9.14592e-06, No Iterations 2
smoothSolver:  Solving for Uy, Initial residual = 3.34107e-05, Final residual = 8.8553e-06, No Iterations 5
DICPCG:  Solving for p, Initial residual = 9.70358e-05, Final residual = 4.09651e-06, No Iterations 36
time step continuity errors : sum local = 9.33567e-09, global = 4.99472e-19, cumulative = -4.96817e-18
DICPCG:  Solving for p, Initial residual = 9.53499e-05, Final residual = 6.43385e-07, No Iterations 44
time step continuity errors : sum local = 1.41581e-09, global = -9.08968e-20, cumulative = -5.05906e-18
ExecutionTime = 1.43 s  ClockTime = 1 s

Time = 0.15

Courant Number mean: 0.224741 max: 0.926435
smoothSolver:  Solving for Ux, Initial residual = 1.4445e-05, Final residual = 8.55095e-06, No Iterations 2
smoothSolver:  Solving for Uy, Initial residual = 3.08012e-05, Final residual = 8.15169e-06, No Iterations 5
DICPCG:  Solving for p, Initial residual = 8.87567e-05, Final residual = 2.7316e-06, No Iterations 35
time step continuity errors : sum local = 6.07142e-09, global = -4.20363e-20, cumulative = -5.1011e-18
DICPCG:  Solving for p, Initial residual = 8.74227e-05, Final residual = 9.9584e-07, No Iterations 41
time step continuity errors : sum local = 2.22166e-09, global = -1.43578e-19, cumulative = -5.24468e-18
ExecutionTime = 1.5 s  ClockTime = 2 s

Time = 0.1525

Courant Number mean: 0.224747 max: 0.926436
smoothSolver:  Solving for Ux, Initial residual = 1.33457e-05, Final residual = 7.89879e-06, No Iterations 2
smoothSolver:  Solving for Uy, Initial residual = 2.87768e-05, Final residual = 9.88608e-06, No Iterations 4
DICPCG:  Solving for p, Initial residual = 6.32647e-05, Final residual = 2.45862e-06, No Iterations 35
time step continuity errors : sum local = 5.43369e-09, global = 9.09071e-20, cumulative = -5.15377e-18
DICPCG:  Solving for p, Initial residual = 6.18809e-05, Final residual = 8.80106e-07, No Iterations 37
time step continuity errors : sum local = 1.95284e-09, global = 1.23358e-19, cumulative = -5.03041e-18
ExecutionTime = 1.51 s  ClockTime = 2 s

Time = 0.155

Courant Number mean: 0.224753 max: 0.926437
smoothSolver:  Solving for Ux, Initial residual = 1.22965e-05, Final residual = 9.43754e-06, No Iterations 1
smoothSolver:  Solving for Uy, Initial residual = 2.69013e-05, Final residual = 9.29313e-06, No Iterations 4
DICPCG:  Solving for p, Initial residual = 0.000105994, Final residual = 4.02128e-06, No Iterations 35
time step continuity errors : sum local = 9.07015e-09, global = -7.13107e-19, cumulative = -5.74352e-18
DICPCG:  Solving for p, Initial residual = 0.00010531, Final residual = 7.12766e-07, No Iterations 44
time step continuity errors : sum local = 1.56895e-09, global = 1.65901e-20, cumulative = -5.72693e-18
ExecutionTime = 1.52 s  ClockTime = 2 s

Time = 0.1575

Courant Number mean: 0.224757 max: 0.926439
smoothSolver:  Solving for Ux, Initial residual = 1.2149e-05, Final residual = 9.19452e-06, No Iterations 1
smoothSolver:  Solving for Uy, Initial residual = 2.48142e-05, Final residual = 8.43153e-06, No Iterations 4
DICPCG:  Solving for p, Initial residual = 9.58862e-05, Final residual = 2.86469e-06, No Iterations 40
time step continuity errors : sum local = 6.3305e-09, global = -1.52046e-20, cumulative = -5.74213e-18
DICPCG:  Solving for p, Initial residual = 9.55087e-05, Final residual = 6.19969e-07, No Iterations 44
time step continuity errors : sum local = 1.37031e-09, global = 4.33458e-19, cumulative = -5.30867e-18
ExecutionTime = 1.54 s  ClockTime = 2 s

Time = 0.16

Courant Number mean: 0.224762 max: 0.92644
smoothSolver:  Solving for Ux, Initial residual = 1.14886e-05, Final residual = 8.67523e-06, No Iterations 1
smoothSolver:  Solving for Uy, Initial residual = 2.32988e-05, Final residual = 7.89843e-06, No Iterations 4
DICPCG:  Solving for p, Initial residual = 9.06545e-05, Final residual = 4.48046e-06, No Iterations 34
time step continuity errors : sum local = 9.89326e-09, global = -3.24772e-19, cumulative = -5.63345e-18
DICPCG:  Solving for p, Initial residual = 9.0877e-05, Final residual = 9.8139e-07, No Iterations 37
time step continuity errors : sum local = 2.17687e-09, global = -7.54285e-21, cumulative = -5.64099e-18
ExecutionTime = 1.56 s  ClockTime = 2 s

Time = 0.1625

Courant Number mean: 0.224766 max: 0.92644
smoothSolver:  Solving for Ux, Initial residual = 1.09243e-05, Final residual = 8.22987e-06, No Iterations 1
smoothSolver:  Solving for Uy, Initial residual = 2.19116e-05, Final residual = 9.63419e-06, No Iterations 3
DICPCG:  Solving for p, Initial residual = 6.4996e-05, Final residual = 3.22433e-06, No Iterations 36
time step continuity errors : sum local = 7.33679e-09, global = 4.6715e-20, cumulative = -5.59427e-18
DICPCG:  Solving for p, Initial residual = 6.43965e-05, Final residual = 8.69091e-07, No Iterations 43
time step continuity errors : sum local = 1.91393e-09, global = -5.39637e-19, cumulative = -6.13391e-18
ExecutionTime = 1.58 s  ClockTime = 2 s

Time = 0.165

Courant Number mean: 0.224769 max: 0.926441
smoothSolver:  Solving for Ux, Initial residual = 1.02302e-05, Final residual = 7.75754e-06, No Iterations 1
smoothSolver:  Solving for Uy, Initial residual = 2.06829e-05, Final residual = 9.14805e-06, No Iterations 3
DICPCG:  Solving for p, Initial residual = 6.18563e-05, Final residual = 2.48048e-06, No Iterations 40
time step continuity errors : sum local = 5.47073e-09, global = -2.04975e-19, cumulative = -6.33889e-18
DICPCG:  Solving for p, Initial residual = 6.13745e-05, Final residual = 7.67299e-07, No Iterations 43
time step continuity errors : sum local = 1.69198e-09, global = -2.1606e-19, cumulative = -6.55495e-18
ExecutionTime = 1.59 s  ClockTime = 2 s

Time = 0.1675

Courant Number mean: 0.224772 max: 0.926441
smoothSolver:  Solving for Ux, Initial residual = 9.5969e-06, Final residual = 9.5969e-06, No Iterations 0
smoothSolver:  Solving for Uy, Initial residual = 1.96422e-05, Final residual = 8.71335e-06, No Iterations 3
DICPCG:  Solving for p, Initial residual = 0.000106354, Final residual = 4.62094e-06, No Iterations 34
time step continuity errors : sum local = 1.02091e-08, global = -2.37494e-19, cumulative = -6.79244e-18
DICPCG:  Solving for p, Initial residual = 0.000106845, Final residual = 9.7472e-07, No Iterations 37
time step continuity errors : sum local = 2.15366e-09, global = -1.87155e-19, cumulative = -6.97959e-18
ExecutionTime = 1.6 s  ClockTime = 2 s

Time = 0.17

Courant Number mean: 0.224775 max: 0.926443
smoothSolver:  Solving for Ux, Initial residual = 9.90499e-06, Final residual = 9.90499e-06, No Iterations 0
smoothSolver:  Solving for Uy, Initial residual = 1.84695e-05, Final residual = 7.98991e-06, No Iterations 3
DICPCG:  Solving for p, Initial residual = 0.000100443, Final residual = 2.4732e-06, No Iterations 35
time step continuity errors : sum local = 5.47755e-09, global = -2.40446e-19, cumulative = -7.22004e-18
DICPCG:  Solving for p, Initial residual = 0.000100879, Final residual = 6.41945e-07, No Iterations 44
time step continuity errors : sum local = 1.41737e-09, global = 4.22219e-19, cumulative = -6.79782e-18
ExecutionTime = 1.62 s  ClockTime = 2 s

Time = 0.1725

Courant Number mean: 0.224777 max: 0.926443
smoothSolver:  Solving for Ux, Initial residual = 9.79894e-06, Final residual = 9.79894e-06, No Iterations 0
smoothSolver:  Solving for Uy, Initial residual = 1.7471e-05, Final residual = 9.80697e-06, No Iterations 2
DICPCG:  Solving for p, Initial residual = 7.30146e-05, Final residual = 2.35705e-06, No Iterations 35
time step continuity errors : sum local = 5.26927e-09, global = -2.28498e-19, cumulative = -7.02632e-18
DICPCG:  Solving for p, Initial residual = 7.37813e-05, Final residual = 9.34592e-07, No Iterations 43
time step continuity errors : sum local = 2.06646e-09, global = 3.57704e-19, cumulative = -6.66862e-18
ExecutionTime = 1.64 s  ClockTime = 2 s

Time = 0.175

Courant Number mean: 0.224779 max: 0.926444
smoothSolver:  Solving for Ux, Initial residual = 9.41493e-06, Final residual = 9.41493e-06, No Iterations 0
smoothSolver:  Solving for Uy, Initial residual = 1.68688e-05, Final residual = 9.51583e-06, No Iterations 2
DICPCG:  Solving for p, Initial residual = 7.18142e-05, Final residual = 2.79311e-06, No Iterations 35
time step continuity errors : sum local = 6.27245e-09, global = 1.56652e-19, cumulative = -6.51196e-18
DICPCG:  Solving for p, Initial residual = 7.23617e-05, Final residual = 8.80285e-07, No Iterations 43
time step continuity errors : sum local = 1.94631e-09, global = -7.74799e-19, cumulative = -7.28676e-18
ExecutionTime = 1.65 s  ClockTime = 2 s

Time = 0.1775

Courant Number mean: 0.224781 max: 0.926444
smoothSolver:  Solving for Ux, Initial residual = 9.13893e-06, Final residual = 9.13893e-06, No Iterations 0
smoothSolver:  Solving for Uy, Initial residual = 1.62246e-05, Final residual = 9.1484e-06, No Iterations 2
DICPCG:  Solving for p, Initial residual = 6.96184e-05, Final residual = 3.06172e-06, No Iterations 35
time step continuity errors : sum local = 6.89351e-09, global = -3.36249e-19, cumulative = -7.62301e-18
DICPCG:  Solving for p, Initial residual = 7.01639e-05, Final residual = 8.52642e-07, No Iterations 43
time step continuity errors : sum local = 1.88566e-09, global = 3.68302e-19, cumulative = -7.25471e-18
ExecutionTime = 1.66 s  ClockTime = 2 s

Time = 0.18

Courant Number mean: 0.224783 max: 0.926445
smoothSolver:  Solving for Ux, Initial residual = 8.88387e-06, Final residual = 8.88387e-06, No Iterations 0
smoothSolver:  Solving for Uy, Initial residual = 1.56024e-05, Final residual = 8.79474e-06, No Iterations 2
DICPCG:  Solving for p, Initial residual = 6.75116e-05, Final residual = 3.15276e-06, No Iterations 35
time step continuity errors : sum local = 7.10668e-09, global = -2.96069e-19, cumulative = -7.55078e-18
DICPCG:  Solving for p, Initial residual = 6.80237e-05, Final residual = 8.16119e-07, No Iterations 43
time step continuity errors : sum local = 1.80466e-09, global = 2.88996e-21, cumulative = -7.54789e-18
ExecutionTime = 1.68 s  ClockTime = 2 s

Time = 0.1825

Courant Number mean: 0.224784 max: 0.926445
smoothSolver:  Solving for Ux, Initial residual = 8.634e-06, Final residual = 8.634e-06, No Iterations 0
smoothSolver:  Solving for Uy, Initial residual = 1.50227e-05, Final residual = 8.45874e-06, No Iterations 2
DICPCG:  Solving for p, Initial residual = 6.5389e-05, Final residual = 3.26086e-06, No Iterations 19
time step continuity errors : sum local = 9.5804e-09, global = 7.14203e-19, cumulative = -6.83369e-18
DICPCG:  Solving for p, Initial residual = 6.66626e-05, Final residual = 9.62186e-07, No Iterations 43
time step continuity errors : sum local = 2.12486e-09, global = -1.29102e-19, cumulative = -6.96279e-18
ExecutionTime = 1.7 s  ClockTime = 2 s

Time = 0.185

Courant Number mean: 0.224786 max: 0.926445
smoothSolver:  Solving for Ux, Initial residual = 8.91534e-06, Final residual = 8.91534e-06, No Iterations 0
smoothSolver:  Solving for Uy, Initial residual = 1.4245e-05, Final residual = 7.86835e-06, No Iterations 2
DICPCG:  Solving for p, Initial residual = 6.86986e-05, Final residual = 2.62064e-06, No Iterations 19
time step continuity errors : sum local = 6.70659e-09, global = -2.25717e-20, cumulative = -6.98536e-18
DICPCG:  Solving for p, Initial residual = 6.7945e-05, Final residual = 7.29754e-07, No Iterations 44
time step continuity errors : sum local = 1.61401e-09, global = 8.88547e-20, cumulative = -6.8965e-18
ExecutionTime = 1.71 s  ClockTime = 2 s

Time = 0.1875

Courant Number mean: 0.224787 max: 0.926445
smoothSolver:  Solving for Ux, Initial residual = 7.98586e-06, Final residual = 7.98586e-06, No Iterations 0
smoothSolver:  Solving for Uy, Initial residual = 1.48614e-05, Final residual = 8.31296e-06, No Iterations 2
DICPCG:  Solving for p, Initial residual = 6.37471e-05, Final residual = 3.05694e-06, No Iterations 36
time step continuity errors : sum local = 6.8712e-09, global = -5.31515e-20, cumulative = -6.94966e-18
DICPCG:  Solving for p, Initial residual = 6.31847e-05, Final residual = 9.24544e-07, No Iterations 43
time step continuity errors : sum local = 2.03888e-09, global = -2.85191e-19, cumulative = -7.23485e-18
ExecutionTime = 1.72 s  ClockTime = 2 s

Time = 0.19

Courant Number mean: 0.224789 max: 0.926446
smoothSolver:  Solving for Ux, Initial residual = 7.91772e-06, Final residual = 7.91772e-06, No Iterations 0
smoothSolver:  Solving for Uy, Initial residual = 1.35085e-05, Final residual = 7.57749e-06, No Iterations 2
DICPCG:  Solving for p, Initial residual = 6.00378e-05, Final residual = 2.29897e-06, No Iterations 35
time step continuity errors : sum local = 5.18e-09, global = -2.62371e-19, cumulative = -7.49722e-18
DICPCG:  Solving for p, Initial residual = 6.01922e-05, Final residual = 7.10135e-07, No Iterations 43
time step continuity errors : sum local = 1.57092e-09, global = 4.04988e-19, cumulative = -7.09223e-18
ExecutionTime = 1.74 s  ClockTime = 2 s

Time = 0.1925

Courant Number mean: 0.22479 max: 0.926446
smoothSolver:  Solving for Ux, Initial residual = 7.67935e-06, Final residual = 7.67935e-06, No Iterations 0
smoothSolver:  Solving for Uy, Initial residual = 1.29843e-05, Final residual = 9.62557e-06, No Iterations 1
DICPCG:  Solving for p, Initial residual = 3.31141e-05, Final residual = 1.29565e-06, No Iterations 35
time step continuity errors : sum local = 2.91047e-09, global = 5.50437e-20, cumulative = -7.03719e-18
DICPCG:  Solving for p, Initial residual = 3.35232e-05, Final residual = 7.50249e-07, No Iterations 42
time step continuity errors : sum local = 1.6548e-09, global = -4.81383e-19, cumulative = -7.51857e-18
ExecutionTime = 1.75 s  ClockTime = 2 s

Time = 0.195

Courant Number mean: 0.224791 max: 0.926446
smoothSolver:  Solving for Ux, Initial residual = 7.26787e-06, Final residual = 7.26787e-06, No Iterations 0
smoothSolver:  Solving for Uy, Initial residual = 1.27875e-05, Final residual = 9.55399e-06, No Iterations 1
DICPCG:  Solving for p, Initial residual = 3.2605e-05, Final residual = 1.2304e-06, No Iterations 35
time step continuity errors : sum local = 2.77115e-09, global = -4.51062e-19, cumulative = -7.96963e-18
DICPCG:  Solving for p, Initial residual = 3.28469e-05, Final residual = 9.94802e-07, No Iterations 41
time step continuity errors : sum local = 2.19496e-09, global = -3.03539e-19, cumulative = -8.27317e-18
ExecutionTime = 1.76 s  ClockTime = 2 s

Time = 0.1975

Courant Number mean: 0.224792 max: 0.926446
smoothSolver:  Solving for Ux, Initial residual = 6.99938e-06, Final residual = 6.99938e-06, No Iterations 0
smoothSolver:  Solving for Uy, Initial residual = 1.24791e-05, Final residual = 9.34443e-06, No Iterations 1
DICPCG:  Solving for p, Initial residual = 3.17736e-05, Final residual = 1.33409e-06, No Iterations 35
time step continuity errors : sum local = 3.01354e-09, global = 3.87027e-19, cumulative = -7.88614e-18
DICPCG:  Solving for p, Initial residual = 3.19335e-05, Final residual = 9.68307e-07, No Iterations 41
time step continuity errors : sum local = 2.13603e-09, global = -2.34987e-19, cumulative = -8.12113e-18
ExecutionTime = 1.77 s  ClockTime = 2 s

Time = 0.2

Courant Number mean: 0.224793 max: 0.926446
smoothSolver:  Solving for Ux, Initial residual = 6.78166e-06, Final residual = 6.78166e-06, No Iterations 0
smoothSolver:  Solving for Uy, Initial residual = 1.21541e-05, Final residual = 9.11189e-06, No Iterations 1
DICPCG:  Solving for p, Initial residual = 3.07784e-05, Final residual = 1.26725e-06, No Iterations 35
time step continuity errors : sum local = 2.86795e-09, global = 1.11333e-19, cumulative = -8.0098e-18
DICPCG:  Solving for p, Initial residual = 3.10044e-05, Final residual = 9.28423e-07, No Iterations 41
time step continuity errors : sum local = 2.04871e-09, global = 2.60014e-19, cumulative = -7.74978e-18
ExecutionTime = 1.85 s  ClockTime = 2 s

Time = 0.2025

Courant Number mean: 0.224794 max: 0.926446
smoothSolver:  Solving for Ux, Initial residual = 6.584e-06, Final residual = 6.584e-06, No Iterations 0
smoothSolver:  Solving for Uy, Initial residual = 1.18526e-05, Final residual = 8.8918e-06, No Iterations 1
DICPCG:  Solving for p, Initial residual = 2.99614e-05, Final residual = 1.20091e-06, No Iterations 35
time step continuity errors : sum local = 2.71498e-09, global = -1.99123e-19, cumulative = -7.94891e-18
DICPCG:  Solving for p, Initial residual = 3.0161e-05, Final residual = 8.98197e-07, No Iterations 41
time step continuity errors : sum local = 1.98086e-09, global = -2.2596e-19, cumulative = -8.17487e-18
ExecutionTime = 1.86 s  ClockTime = 2 s

Time = 0.205

Courant Number mean: 0.224795 max: 0.926446
smoothSolver:  Solving for Ux, Initial residual = 6.40167e-06, Final residual = 6.40167e-06, No Iterations 0
smoothSolver:  Solving for Uy, Initial residual = 1.15557e-05, Final residual = 8.67365e-06, No Iterations 1
DICPCG:  Solving for p, Initial residual = 2.92084e-05, Final residual = 1.14811e-06, No Iterations 35
time step continuity errors : sum local = 2.59663e-09, global = -1.14978e-19, cumulative = -8.28984e-18
DICPCG:  Solving for p, Initial residual = 2.94169e-05, Final residual = 9.9559e-07, No Iterations 40
time step continuity errors : sum local = 2.21272e-09, global = -3.03767e-19, cumulative = -8.59361e-18
ExecutionTime = 1.87 s  ClockTime = 2 s

Time = 0.2075

Courant Number mean: 0.224796 max: 0.926446
smoothSolver:  Solving for Ux, Initial residual = 6.22865e-06, Final residual = 6.22865e-06, No Iterations 0
smoothSolver:  Solving for Uy, Initial residual = 1.12678e-05, Final residual = 8.4569e-06, No Iterations 1
DICPCG:  Solving for p, Initial residual = 2.85195e-05, Final residual = 1.19267e-06, No Iterations 35
time step continuity errors : sum local = 2.69911e-09, global = -5.61139e-20, cumulative = -8.64972e-18
DICPCG:  Solving for p, Initial residual = 2.87112e-05, Final residual = 9.05548e-07, No Iterations 40
time step continuity errors : sum local = 2.01543e-09, global = -3.4419e-19, cumulative = -8.99391e-18
ExecutionTime = 1.88 s  ClockTime = 2 s

Time = 0.21

Courant Number mean: 0.224796 max: 0.926447
smoothSolver:  Solving for Ux, Initial residual = 6.06696e-06, Final residual = 6.06696e-06, No Iterations 0
smoothSolver:  Solving for Uy, Initial residual = 1.0972e-05, Final residual = 8.23959e-06, No Iterations 1
DICPCG:  Solving for p, Initial residual = 2.7661e-05, Final residual = 1.13411e-06, No Iterations 35
time step continuity errors : sum local = 2.56703e-09, global = -1.64469e-19, cumulative = -9.15838e-18
DICPCG:  Solving for p, Initial residual = 2.79233e-05, Final residual = 9.52412e-07, No Iterations 36
time step continuity errors : sum local = 2.15264e-09, global = 5.93574e-19, cumulative = -8.56481e-18
ExecutionTime = 1.9 s  ClockTime = 2 s

Time = 0.2125

Courant Number mean: 0.224797 max: 0.926447
smoothSolver:  Solving for Ux, Initial residual = 5.93238e-06, Final residual = 5.93238e-06, No Iterations 0
smoothSolver:  Solving for Uy, Initial residual = 1.06929e-05, Final residual = 8.02954e-06, No Iterations 1
DICPCG:  Solving for p, Initial residual = 2.70703e-05, Final residual = 8.51622e-07, No Iterations 35
time step continuity errors : sum local = 1.90592e-09, global = 1.0042e-19, cumulative = -8.46439e-18
DICPCG:  Solving for p, Initial residual = 2.72134e-05, Final residual = 8.87466e-07, No Iterations 35
time step continuity errors : sum local = 1.99902e-09, global = 1.99728e-19, cumulative = -8.26466e-18
ExecutionTime = 1.92 s  ClockTime = 2 s

Time = 0.215

Courant Number mean: 0.224798 max: 0.926447
smoothSolver:  Solving for Ux, Initial residual = 5.76725e-06, Final residual = 5.76725e-06, No Iterations 0
smoothSolver:  Solving for Uy, Initial residual = 1.04341e-05, Final residual = 7.8433e-06, No Iterations 1
DICPCG:  Solving for p, Initial residual = 2.62396e-05, Final residual = 8.80581e-07, No Iterations 35
time step continuity errors : sum local = 1.97907e-09, global = 1.84182e-19, cumulative = -8.08048e-18
DICPCG:  Solving for p, Initial residual = 2.64195e-05, Final residual = 9.6399e-07, No Iterations 36
time step continuity errors : sum local = 2.17445e-09, global = 1.08361e-19, cumulative = -7.97212e-18
ExecutionTime = 1.93 s  ClockTime = 2 s

Time = 0.2175

Courant Number mean: 0.224799 max: 0.926447
smoothSolver:  Solving for Ux, Initial residual = 5.62498e-06, Final residual = 5.62498e-06, No Iterations 0
smoothSolver:  Solving for Uy, Initial residual = 1.01789e-05, Final residual = 7.64412e-06, No Iterations 1
DICPCG:  Solving for p, Initial residual = 2.57482e-05, Final residual = 8.73721e-07, No Iterations 35
time step continuity errors : sum local = 1.96848e-09, global = 6.32157e-19, cumulative = -7.33996e-18
DICPCG:  Solving for p, Initial residual = 2.58922e-05, Final residual = 8.14843e-07, No Iterations 35
time step continuity errors : sum local = 1.83425e-09, global = -1.07482e-19, cumulative = -7.44744e-18
ExecutionTime = 1.94 s  ClockTime = 2 s

Time = 0.22

Courant Number mean: 0.2248 max: 0.926447
smoothSolver:  Solving for Ux, Initial residual = 5.4823e-06, Final residual = 5.4823e-06, No Iterations 0
smoothSolver:  Solving for Uy, Initial residual = 9.90755e-06, Final residual = 9.90755e-06, No Iterations 0
DICPCG:  Solving for p, Initial residual = 1.61491e-06, Final residual = 7.98919e-07, No Iterations 8
time step continuity errors : sum local = 1.79792e-09, global = -6.07471e-19, cumulative = -8.05491e-18
DICPCG:  Solving for p, Initial residual = 1.22477e-06, Final residual = 6.11905e-07, No Iterations 2
time step continuity errors : sum local = 1.38244e-09, global = -6.04359e-20, cumulative = -8.11535e-18
ExecutionTime = 1.95 s  ClockTime = 2 s

Time = 0.2225

Courant Number mean: 0.2248 max: 0.926447
smoothSolver:  Solving for Ux, Initial residual = 5.15215e-06, Final residual = 5.15215e-06, No Iterations 0
smoothSolver:  Solving for Uy, Initial residual = 9.94519e-06, Final residual = 9.94519e-06, No Iterations 0
DICPCG:  Solving for p, Initial residual = 1.11763e-06, Final residual = 7.71451e-07, No Iterations 1
time step continuity errors : sum local = 1.73478e-09, global = -2.21049e-19, cumulative = -8.3364e-18
DICPCG:  Solving for p, Initial residual = 9.24297e-07, Final residual = 9.24297e-07, No Iterations 0
time step continuity errors : sum local = 2.07158e-09, global = -3.23366e-19, cumulative = -8.65976e-18
ExecutionTime = 1.96 s  ClockTime = 2 s

Time = 0.225

Courant Number mean: 0.2248 max: 0.926447
smoothSolver:  Solving for Ux, Initial residual = 5.02774e-06, Final residual = 5.02774e-06, No Iterations 0
smoothSolver:  Solving for Uy, Initial residual = 9.72401e-06, Final residual = 9.72401e-06, No Iterations 0
DICPCG:  Solving for p, Initial residual = 1.26968e-06, Final residual = 9.4862e-07, No Iterations 6
time step continuity errors : sum local = 2.17989e-09, global = -5.61759e-20, cumulative = -8.71594e-18
DICPCG:  Solving for p, Initial residual = 1.58982e-06, Final residual = 7.09168e-07, No Iterations 3
time step continuity errors : sum local = 1.67492e-09, global = 4.36457e-19, cumulative = -8.27948e-18
ExecutionTime = 1.97 s  ClockTime = 2 s

Time = 0.2275

Courant Number mean: 0.224801 max: 0.926447
smoothSolver:  Solving for Ux, Initial residual = 4.79355e-06, Final residual = 4.79355e-06, No Iterations 0
smoothSolver:  Solving for Uy, Initial residual = 9.89428e-06, Final residual = 9.89428e-06, No Iterations 0
DICPCG:  Solving for p, Initial residual = 1.37333e-06, Final residual = 9.45336e-07, No Iterations 1
time step continuity errors : sum local = 2.19102e-09, global = -6.69008e-19, cumulative = -8.94849e-18
DICPCG:  Solving for p, Initial residual = 1.33507e-06, Final residual = 9.68309e-07, No Iterations 1
time step continuity errors : sum local = 2.26144e-09, global = 6.2858e-19, cumulative = -8.31991e-18
ExecutionTime = 1.98 s  ClockTime = 2 s

Time = 0.23

Courant Number mean: 0.224801 max: 0.926447
smoothSolver:  Solving for Ux, Initial residual = 4.73056e-06, Final residual = 4.73056e-06, No Iterations 0
smoothSolver:  Solving for Uy, Initial residual = 9.70358e-06, Final residual = 9.70358e-06, No Iterations 0
DICPCG:  Solving for p, Initial residual = 1.44423e-06, Final residual = 5.00274e-07, No Iterations 3
time step continuity errors : sum local = 1.26191e-09, global = 2.34568e-19, cumulative = -8.08534e-18
DICPCG:  Solving for p, Initial residual = 9.56409e-07, Final residual = 9.56409e-07, No Iterations 0
time step continuity errors : sum local = 2.26889e-09, global = -3.47798e-19, cumulative = -8.43314e-18
ExecutionTime = 1.99 s  ClockTime = 2 s

Time = 0.2325

Courant Number mean: 0.224802 max: 0.926447
smoothSolver:  Solving for Ux, Initial residual = 4.63529e-06, Final residual = 4.63529e-06, No Iterations 0
smoothSolver:  Solving for Uy, Initial residual = 9.48804e-06, Final residual = 9.48804e-06, No Iterations 0
DICPCG:  Solving for p, Initial residual = 1.50473e-06, Final residual = 8.52754e-07, No Iterations 2
time step continuity errors : sum local = 2.04238e-09, global = -5.81156e-19, cumulative = -9.0143e-18
DICPCG:  Solving for p, Initial residual = 1.6409e-06, Final residual = 6.03696e-07, No Iterations 2
time step continuity errors : sum local = 1.49695e-09, global = 1.41758e-20, cumulative = -9.00012e-18
ExecutionTime = 1.99 s  ClockTime = 2 s

Time = 0.235

Courant Number mean: 0.224802 max: 0.926447
smoothSolver:  Solving for Ux, Initial residual = 4.58186e-06, Final residual = 4.58186e-06, No Iterations 0
smoothSolver:  Solving for Uy, Initial residual = 9.46246e-06, Final residual = 9.46246e-06, No Iterations 0
DICPCG:  Solving for p, Initial residual = 1.19137e-06, Final residual = 9.63702e-07, No Iterations 1
time step continuity errors : sum local = 2.29837e-09, global = 4.43819e-19, cumulative = -8.5563e-18
DICPCG:  Solving for p, Initial residual = 1.34031e-06, Final residual = 9.01318e-07, No Iterations 3
time step continuity errors : sum local = 2.16455e-09, global = 4.37951e-19, cumulative = -8.11835e-18
ExecutionTime = 2 s  ClockTime = 2 s

Time = 0.2375

Courant Number mean: 0.224802 max: 0.926447
smoothSolver:  Solving for Ux, Initial residual = 4.40309e-06, Final residual = 4.40309e-06, No Iterations 0
smoothSolver:  Solving for Uy, Initial residual = 9.43272e-06, Final residual = 9.43272e-06, No Iterations 0
DICPCG:  Solving for p, Initial residual = 1.39171e-06, Final residual = 8.52033e-07, No Iterations 2
time step continuity errors : sum local = 2.07032e-09, global = 4.66649e-19, cumulative = -7.6517e-18
DICPCG:  Solving for p, Initial residual = 1.60187e-06, Final residual = 9.33555e-07, No Iterations 1
time step continuity errors : sum local = 2.25256e-09, global = 4.60481e-20, cumulative = -7.60566e-18
ExecutionTime = 2.01 s  ClockTime = 2 s

Time = 0.24

Courant Number mean: 0.224803 max: 0.926447
smoothSolver:  Solving for Ux, Initial residual = 4.37197e-06, Final residual = 4.37197e-06, No Iterations 0
smoothSolver:  Solving for Uy, Initial residual = 9.36813e-06, Final residual = 9.36813e-06, No Iterations 0
DICPCG:  Solving for p, Initial residual = 1.20349e-06, Final residual = 6.278e-07, No Iterations 1
time step continuity errors : sum local = 1.58306e-09, global = -3.83109e-19, cumulative = -7.98877e-18
DICPCG:  Solving for p, Initial residual = 8.28015e-07, Final residual = 8.28015e-07, No Iterations 0
time step continuity errors : sum local = 2.02506e-09, global = -1.27582e-19, cumulative = -8.11635e-18
ExecutionTime = 2.02 s  ClockTime = 2 s

Time = 0.2425

Courant Number mean: 0.224803 max: 0.926447
smoothSolver:  Solving for Ux, Initial residual = 4.32881e-06, Final residual = 4.32881e-06, No Iterations 0
smoothSolver:  Solving for Uy, Initial residual = 9.24239e-06, Final residual = 9.24239e-06, No Iterations 0
DICPCG:  Solving for p, Initial residual = 1.15953e-06, Final residual = 8.77865e-07, No Iterations 2
time step continuity errors : sum local = 2.15212e-09, global = 2.65008e-20, cumulative = -8.08985e-18
DICPCG:  Solving for p, Initial residual = 1.50028e-06, Final residual = 6.93805e-07, No Iterations 2
time step continuity errors : sum local = 1.74897e-09, global = 5.66867e-19, cumulative = -7.52298e-18
ExecutionTime = 2.03 s  ClockTime = 2 s

Time = 0.245

Courant Number mean: 0.224803 max: 0.926447
smoothSolver:  Solving for Ux, Initial residual = 4.24677e-06, Final residual = 4.24677e-06, No Iterations 0
smoothSolver:  Solving for Uy, Initial residual = 9.12372e-06, Final residual = 9.12372e-06, No Iterations 0
DICPCG:  Solving for p, Initial residual = 1.19868e-06, Final residual = 6.62044e-07, No Iterations 1
time step continuity errors : sum local = 1.68521e-09, global = 1.05466e-19, cumulative = -7.41751e-18
DICPCG:  Solving for p, Initial residual = 8.36894e-07, Final residual = 8.36894e-07, No Iterations 0
time step continuity errors : sum local = 2.07383e-09, global = 1.51498e-19, cumulative = -7.26602e-18
ExecutionTime = 2.03 s  ClockTime = 2 s

Time = 0.2475

Courant Number mean: 0.224804 max: 0.926447
smoothSolver:  Solving for Ux, Initial residual = 4.18496e-06, Final residual = 4.18496e-06, No Iterations 0
smoothSolver:  Solving for Uy, Initial residual = 8.98883e-06, Final residual = 8.98883e-06, No Iterations 0
DICPCG:  Solving for p, Initial residual = 1.10091e-06, Final residual = 7.8062e-07, No Iterations 1
time step continuity errors : sum local = 1.95333e-09, global = -1.73904e-19, cumulative = -7.43992e-18
DICPCG:  Solving for p, Initial residual = 1.01662e-06, Final residual = 7.71768e-07, No Iterations 1
time step continuity errors : sum local = 1.93671e-09, global = -1.2492e-19, cumulative = -7.56484e-18
ExecutionTime = 2.04 s  ClockTime = 2 s

Time = 0.25

Courant Number mean: 0.224804 max: 0.926447
smoothSolver:  Solving for Ux, Initial residual = 4.12098e-06, Final residual = 4.12098e-06, No Iterations 0
smoothSolver:  Solving for Uy, Initial residual = 8.87171e-06, Final residual = 8.87171e-06, No Iterations 0
DICPCG:  Solving for p, Initial residual = 9.93415e-07, Final residual = 9.93415e-07, No Iterations 0
time step continuity errors : sum local = 2.42637e-09, global = 4.87587e-19, cumulative = -7.07725e-18
DICPCG:  Solving for p, Initial residual = 1.22238e-06, Final residual = 8.7873e-07, No Iterations 3
time step continuity errors : sum local = 2.19932e-09, global = -1.5491e-19, cumulative = -7.23216e-18
ExecutionTime = 2.1 s  ClockTime = 2 s

Time = 0.2525

Courant Number mean: 0.224805 max: 0.926447
smoothSolver:  Solving for Ux, Initial residual = 3.95834e-06, Final residual = 3.95834e-06, No Iterations 0
smoothSolver:  Solving for Uy, Initial residual = 8.80662e-06, Final residual = 8.80662e-06, No Iterations 0
DICPCG:  Solving for p, Initial residual = 1.49471e-06, Final residual = 9.35778e-07, No Iterations 2
time step continuity errors : sum local = 2.34648e-09, global = 4.66008e-19, cumulative = -6.76616e-18
DICPCG:  Solving for p, Initial residual = 1.55424e-06, Final residual = 6.2723e-07, No Iterations 2
time step continuity errors : sum local = 1.6679e-09, global = 2.46536e-19, cumulative = -6.51962e-18
ExecutionTime = 2.11 s  ClockTime = 2 s

Time = 0.255

Courant Number mean: 0.224805 max: 0.926447
smoothSolver:  Solving for Ux, Initial residual = 3.94159e-06, Final residual = 3.94159e-06, No Iterations 0
smoothSolver:  Solving for Uy, Initial residual = 8.79082e-06, Final residual = 8.79082e-06, No Iterations 0
DICPCG:  Solving for p, Initial residual = 1.15758e-06, Final residual = 4.51483e-07, No Iterations 1
time step continuity errors : sum local = 1.28673e-09, global = -1.51912e-19, cumulative = -6.67153e-18
DICPCG:  Solving for p, Initial residual = 6.99119e-07, Final residual = 6.99119e-07, No Iterations 0
time step continuity errors : sum local = 1.83564e-09, global = 1.51762e-19, cumulative = -6.51977e-18
ExecutionTime = 2.12 s  ClockTime = 2 s

Time = 0.2575

Courant Number mean: 0.224805 max: 0.926447
smoothSolver:  Solving for Ux, Initial residual = 3.8941e-06, Final residual = 3.8941e-06, No Iterations 0
smoothSolver:  Solving for Uy, Initial residual = 8.66514e-06, Final residual = 8.66514e-06, No Iterations 0
DICPCG:  Solving for p, Initial residual = 9.96147e-07, Final residual = 9.96147e-07, No Iterations 0
time step continuity errors : sum local = 2.49238e-09, global = 3.00572e-19, cumulative = -6.2192e-18
DICPCG:  Solving for p, Initial residual = 1.30351e-06, Final residual = 9.79812e-07, No Iterations 2
time step continuity errors : sum local = 2.46147e-09, global = -1.20975e-20, cumulative = -6.2313e-18
ExecutionTime = 2.13 s  ClockTime = 2 s

Time = 0.26

Courant Number mean: 0.224806 max: 0.926447
smoothSolver:  Solving for Ux, Initial residual = 3.81661e-06, Final residual = 3.81661e-06, No Iterations 0
smoothSolver:  Solving for Uy, Initial residual = 8.45064e-06, Final residual = 8.45064e-06, No Iterations 0
DICPCG:  Solving for p, Initial residual = 1.94355e-06, Final residual = 7.94987e-07, No Iterations 1
time step continuity errors : sum local = 2.04827e-09, global = 8.34471e-20, cumulative = -6.14785e-18
DICPCG:  Solving for p, Initial residual = 1.27081e-06, Final residual = 8.53817e-07, No Iterations 1
time step continuity errors : sum local = 2.17527e-09, global = 3.51071e-19, cumulative = -5.79678e-18
ExecutionTime = 2.13 s  ClockTime = 2 s

Time = 0.2625

Courant Number mean: 0.224806 max: 0.926447
smoothSolver:  Solving for Ux, Initial residual = 3.77679e-06, Final residual = 3.77679e-06, No Iterations 0
smoothSolver:  Solving for Uy, Initial residual = 8.33744e-06, Final residual = 8.33744e-06, No Iterations 0
DICPCG:  Solving for p, Initial residual = 1.22796e-06, Final residual = 8.23143e-07, No Iterations 1
time step continuity errors : sum local = 2.10736e-09, global = -2.41387e-19, cumulative = -6.03816e-18
DICPCG:  Solving for p, Initial residual = 9.71683e-07, Final residual = 9.71683e-07, No Iterations 0
time step continuity errors : sum local = 2.43528e-09, global = 1.39783e-19, cumulative = -5.89838e-18
ExecutionTime = 2.14 s  ClockTime = 2 s

Time = 0.265

Courant Number mean: 0.224806 max: 0.926447
smoothSolver:  Solving for Ux, Initial residual = 3.73312e-06, Final residual = 3.73312e-06, No Iterations 0
smoothSolver:  Solving for Uy, Initial residual = 8.22662e-06, Final residual = 8.22662e-06, No Iterations 0
DICPCG:  Solving for p, Initial residual = 1.17686e-06, Final residual = 8.47232e-07, No Iterations 1
time step continuity errors : sum local = 2.16144e-09, global = 4.75401e-19, cumulative = -5.42298e-18
DICPCG:  Solving for p, Initial residual = 1.03217e-06, Final residual = 8.34002e-07, No Iterations 1
time step continuity errors : sum local = 2.13301e-09, global = -2.49891e-19, cumulative = -5.67287e-18
ExecutionTime = 2.15 s  ClockTime = 2 s

Time = 0.2675

Courant Number mean: 0.224807 max: 0.926447
smoothSolver:  Solving for Ux, Initial residual = 3.68674e-06, Final residual = 3.68674e-06, No Iterations 0
smoothSolver:  Solving for Uy, Initial residual = 8.12969e-06, Final residual = 8.12969e-06, No Iterations 0
DICPCG:  Solving for p, Initial residual = 1.04903e-06, Final residual = 9.93412e-07, No Iterations 1
time step continuity errors : sum local = 2.48577e-09, global = 3.82695e-19, cumulative = -5.29018e-18
DICPCG:  Solving for p, Initial residual = 1.27833e-06, Final residual = 9.34436e-07, No Iterations 2
time step continuity errors : sum local = 2.36631e-09, global = -9.94726e-19, cumulative = -6.2849e-18
ExecutionTime = 2.16 s  ClockTime = 2 s

Time = 0.27

Courant Number mean: 0.224807 max: 0.926447
smoothSolver:  Solving for Ux, Initial residual = 3.56125e-06, Final residual = 3.56125e-06, No Iterations 0
smoothSolver:  Solving for Uy, Initial residual = 8.08522e-06, Final residual = 8.08522e-06, No Iterations 0
DICPCG:  Solving for p, Initial residual = 1.51525e-06, Final residual = 9.88135e-07, No Iterations 1
time step continuity errors : sum local = 2.48961e-09, global = -3.03772e-19, cumulative = -6.58867e-18
DICPCG:  Solving for p, Initial residual = 1.62575e-06, Final residual = 6.2748e-07, No Iterations 3
time step continuity errors : sum local = 1.71678e-09, global = 2.1851e-19, cumulative = -6.37016e-18
ExecutionTime = 2.17 s  ClockTime = 2 s

Time = 0.2725

Courant Number mean: 0.224807 max: 0.926447
smoothSolver:  Solving for Ux, Initial residual = 3.54872e-06, Final residual = 3.54872e-06, No Iterations 0
smoothSolver:  Solving for Uy, Initial residual = 8.06296e-06, Final residual = 8.06296e-06, No Iterations 0
DICPCG:  Solving for p, Initial residual = 1.50038e-06, Final residual = 4.99392e-07, No Iterations 2
[...]
time step continuity errors : sum local = 2.45285e-09, global = 7.99315e-20, cumulative = -3.58091e-18
DICPCG:  Solving for p, Initial residual = 1.02359e-06, Final residual = 6.69658e-07, No Iterations 1
time step continuity errors : sum local = 1.88231e-09, global = -2.27108e-19, cumulative = -3.80801e-18
ExecutionTime = 2.84 s  ClockTime = 3 s

Time = 0.435

Courant Number mean: 0.224821 max: 0.92645
smoothSolver:  Solving for Ux, Initial residual = 1.2873e-06, Final residual = 1.2873e-06, No Iterations 0
smoothSolver:  Solving for Uy, Initial residual = 3.15578e-06, Final residual = 3.15578e-06, No Iterations 0
DICPCG:  Solving for p, Initial residual = 1.03444e-06, Final residual = 6.0292e-07, No Iterations 1
time step continuity errors : sum local = 1.73506e-09, global = -5.02983e-19, cumulative = -4.311e-18
DICPCG:  Solving for p, Initial residual = 7.53818e-07, Final residual = 7.53818e-07, No Iterations 0
time step continuity errors : sum local = 2.06819e-09, global = 4.57715e-19, cumulative = -3.85328e-18
ExecutionTime = 2.86 s  ClockTime = 3 s

Time = 0.4375

Courant Number mean: 0.224821 max: 0.92645
smoothSolver:  Solving for Ux, Initial residual = 1.26849e-06, Final residual = 1.26849e-06, No Iterations 0
smoothSolver:  Solving for Uy, Initial residual = 3.10766e-06, Final residual = 3.10766e-06, No Iterations 0
DICPCG:  Solving for p, Initial residual = 8.98919e-07, Final residual = 8.98919e-07, No Iterations 0
time step continuity errors : sum local = 2.38853e-09, global = -2.1545e-19, cumulative = -4.06873e-18
DICPCG:  Solving for p, Initial residual = 9.89864e-07, Final residual = 9.89864e-07, No Iterations 0
time step continuity errors : sum local = 2.5893e-09, global = 4.20869e-19, cumulative = -3.64786e-18
ExecutionTime = 2.87 s  ClockTime = 3 s

Time = 0.44

Courant Number mean: 0.224821 max: 0.92645
smoothSolver:  Solving for Ux, Initial residual = 1.25338e-06, Final residual = 1.25338e-06, No Iterations 0
smoothSolver:  Solving for Uy, Initial residual = 3.06928e-06, Final residual = 3.06928e-06, No Iterations 0
DICPCG:  Solving for p, Initial residual = 1.08496e-06, Final residual = 7.23079e-07, No Iterations 1
time step continuity errors : sum local = 2.00076e-09, global = -1.05755e-19, cumulative = -3.75362e-18
DICPCG:  Solving for p, Initial residual = 1.09699e-06, Final residual = 6.61149e-07, No Iterations 1
time step continuity errors : sum local = 1.86459e-09, global = -3.84039e-19, cumulative = -4.13766e-18
ExecutionTime = 2.87 s  ClockTime = 3 s

Time = 0.4425

Courant Number mean: 0.224821 max: 0.92645
smoothSolver:  Solving for Ux, Initial residual = 1.22919e-06, Final residual = 1.22919e-06, No Iterations 0
smoothSolver:  Solving for Uy, Initial residual = 3.01237e-06, Final residual = 3.01237e-06, No Iterations 0
DICPCG:  Solving for p, Initial residual = 8.2535e-07, Final residual = 8.2535e-07, No Iterations 0
time step continuity errors : sum local = 2.22712e-09, global = -3.15104e-20, cumulative = -4.16917e-18
DICPCG:  Solving for p, Initial residual = 9.32478e-07, Final residual = 9.32478e-07, No Iterations 0
time step continuity errors : sum local = 2.46362e-09, global = -1.31584e-19, cumulative = -4.30075e-18
ExecutionTime = 2.88 s  ClockTime = 3 s

Time = 0.445

Courant Number mean: 0.224821 max: 0.92645
smoothSolver:  Solving for Ux, Initial residual = 1.21425e-06, Final residual = 1.21425e-06, No Iterations 0
smoothSolver:  Solving for Uy, Initial residual = 2.97466e-06, Final residual = 2.97466e-06, No Iterations 0
DICPCG:  Solving for p, Initial residual = 1.03068e-06, Final residual = 7.56155e-07, No Iterations 1
time step continuity errors : sum local = 2.07539e-09, global = -1.07187e-18, cumulative = -5.37262e-18
DICPCG:  Solving for p, Initial residual = 1.09349e-06, Final residual = 6.66095e-07, No Iterations 1
time step continuity errors : sum local = 1.87768e-09, global = -5.02678e-19, cumulative = -5.87529e-18
ExecutionTime = 2.89 s  ClockTime = 3 s

Time = 0.4475

Courant Number mean: 0.224822 max: 0.92645
smoothSolver:  Solving for Ux, Initial residual = 1.19221e-06, Final residual = 1.19221e-06, No Iterations 0
smoothSolver:  Solving for Uy, Initial residual = 2.9267e-06, Final residual = 2.9267e-06, No Iterations 0
DICPCG:  Solving for p, Initial residual = 8.40007e-07, Final residual = 8.40007e-07, No Iterations 0
time step continuity errors : sum local = 2.26164e-09, global = 8.58096e-20, cumulative = -5.78948e-18
DICPCG:  Solving for p, Initial residual = 9.51765e-07, Final residual = 9.51765e-07, No Iterations 0
time step continuity errors : sum local = 2.50836e-09, global = -2.46447e-20, cumulative = -5.81413e-18
ExecutionTime = 2.89 s  ClockTime = 3 s

Time = 0.45

Courant Number mean: 0.224822 max: 0.92645
smoothSolver:  Solving for Ux, Initial residual = 1.1776e-06, Final residual = 1.1776e-06, No Iterations 0
smoothSolver:  Solving for Uy, Initial residual = 2.88974e-06, Final residual = 2.88974e-06, No Iterations 0
DICPCG:  Solving for p, Initial residual = 1.05529e-06, Final residual = 7.23472e-07, No Iterations 1
time step continuity errors : sum local = 2.00591e-09, global = 1.74132e-19, cumulative = -5.64e-18
DICPCG:  Solving for p, Initial residual = 1.05622e-06, Final residual = 6.64798e-07, No Iterations 1
time step continuity errors : sum local = 1.87795e-09, global = -2.50005e-19, cumulative = -5.89e-18
ExecutionTime = 2.96 s  ClockTime = 3 s

Time = 0.4525

Courant Number mean: 0.224822 max: 0.92645
smoothSolver:  Solving for Ux, Initial residual = 1.15538e-06, Final residual = 1.15538e-06, No Iterations 0
smoothSolver:  Solving for Uy, Initial residual = 2.84431e-06, Final residual = 2.84431e-06, No Iterations 0
DICPCG:  Solving for p, Initial residual = 8.28339e-07, Final residual = 8.28339e-07, No Iterations 0
time step continuity errors : sum local = 2.239e-09, global = -4.1464e-19, cumulative = -6.30464e-18
DICPCG:  Solving for p, Initial residual = 9.3378e-07, Final residual = 9.3378e-07, No Iterations 0
time step continuity errors : sum local = 2.47178e-09, global = -4.61324e-19, cumulative = -6.76596e-18
ExecutionTime = 2.96 s  ClockTime = 3 s

Time = 0.455

Courant Number mean: 0.224822 max: 0.92645
smoothSolver:  Solving for Ux, Initial residual = 1.14136e-06, Final residual = 1.14136e-06, No Iterations 0
smoothSolver:  Solving for Uy, Initial residual = 2.80847e-06, Final residual = 2.80847e-06, No Iterations 0
DICPCG:  Solving for p, Initial residual = 1.02769e-06, Final residual = 7.03303e-07, No Iterations 1
time step continuity errors : sum local = 1.96482e-09, global = 3.05312e-19, cumulative = -6.46065e-18
DICPCG:  Solving for p, Initial residual = 1.02624e-06, Final residual = 6.4918e-07, No Iterations 1
time step continuity errors : sum local = 1.84714e-09, global = -3.00484e-19, cumulative = -6.76114e-18
ExecutionTime = 2.97 s  ClockTime = 3 s

Time = 0.4575

Courant Number mean: 0.224822 max: 0.92645
smoothSolver:  Solving for Ux, Initial residual = 1.12005e-06, Final residual = 1.12005e-06, No Iterations 0
smoothSolver:  Solving for Uy, Initial residual = 2.76671e-06, Final residual = 2.76671e-06, No Iterations 0
DICPCG:  Solving for p, Initial residual = 8.08359e-07, Final residual = 8.08359e-07, No Iterations 0
time step continuity errors : sum local = 2.19855e-09, global = 1.35802e-19, cumulative = -6.62533e-18
DICPCG:  Solving for p, Initial residual = 9.10532e-07, Final residual = 9.10532e-07, No Iterations 0
time step continuity errors : sum local = 2.42411e-09, global = 4.92586e-20, cumulative = -6.57608e-18
ExecutionTime = 2.98 s  ClockTime = 3 s

Time = 0.46

Courant Number mean: 0.224822 max: 0.92645
smoothSolver:  Solving for Ux, Initial residual = 1.1065e-06, Final residual = 1.1065e-06, No Iterations 0
smoothSolver:  Solving for Uy, Initial residual = 2.73179e-06, Final residual = 2.73179e-06, No Iterations 0
DICPCG:  Solving for p, Initial residual = 1.00275e-06, Final residual = 6.78192e-07, No Iterations 1
time step continuity errors : sum local = 1.91308e-09, global = 1.50583e-19, cumulative = -6.42549e-18
DICPCG:  Solving for p, Initial residual = 9.98078e-07, Final residual = 9.98078e-07, No Iterations 0
time step continuity errors : sum local = 2.61968e-09, global = -3.28303e-19, cumulative = -6.7538e-18
ExecutionTime = 2.98 s  ClockTime = 3 s

Time = 0.4625

Courant Number mean: 0.224822 max: 0.92645
smoothSolver:  Solving for Ux, Initial residual = 1.08829e-06, Final residual = 1.08829e-06, No Iterations 0
smoothSolver:  Solving for Uy, Initial residual = 2.69143e-06, Final residual = 2.69143e-06, No Iterations 0
DICPCG:  Solving for p, Initial residual = 1.26313e-06, Final residual = 6.01007e-07, No Iterations 1
time step continuity errors : sum local = 1.74445e-09, global = 3.91567e-20, cumulative = -6.71464e-18
DICPCG:  Solving for p, Initial residual = 8.92043e-07, Final residual = 8.92043e-07, No Iterations 0
time step continuity errors : sum local = 2.38698e-09, global = 2.22382e-19, cumulative = -6.49226e-18
ExecutionTime = 2.99 s  ClockTime = 3 s

Time = 0.465

Courant Number mean: 0.224822 max: 0.92645
smoothSolver:  Solving for Ux, Initial residual = 1.07265e-06, Final residual = 1.07265e-06, No Iterations 0
smoothSolver:  Solving for Uy, Initial residual = 2.6569e-06, Final residual = 2.6569e-06, No Iterations 0
DICPCG:  Solving for p, Initial residual = 1.15423e-06, Final residual = 6.33322e-07, No Iterations 1
time step continuity errors : sum local = 1.81723e-09, global = 4.83797e-20, cumulative = -6.44388e-18
DICPCG:  Solving for p, Initial residual = 9.08048e-07, Final residual = 9.08048e-07, No Iterations 0
time step continuity errors : sum local = 2.42388e-09, global = 4.6182e-19, cumulative = -5.98206e-18
ExecutionTime = 3.01 s  ClockTime = 3 s

Time = 0.4675

Courant Number mean: 0.224823 max: 0.92645
smoothSolver:  Solving for Ux, Initial residual = 1.05498e-06, Final residual = 1.05498e-06, No Iterations 0
smoothSolver:  Solving for Uy, Initial residual = 2.61627e-06, Final residual = 2.61627e-06, No Iterations 0
DICPCG:  Solving for p, Initial residual = 1.14831e-06, Final residual = 6.26829e-07, No Iterations 1
time step continuity errors : sum local = 1.80431e-09, global = 2.35193e-19, cumulative = -5.74686e-18
DICPCG:  Solving for p, Initial residual = 9.1428e-07, Final residual = 9.1428e-07, No Iterations 0
time step continuity errors : sum local = 2.43901e-09, global = 2.33249e-19, cumulative = -5.51361e-18
ExecutionTime = 3.01 s  ClockTime = 3 s

Time = 0.47

Courant Number mean: 0.224823 max: 0.92645
smoothSolver:  Solving for Ux, Initial residual = 1.03869e-06, Final residual = 1.03869e-06, No Iterations 0
smoothSolver:  Solving for Uy, Initial residual = 2.57974e-06, Final residual = 2.57974e-06, No Iterations 0
DICPCG:  Solving for p, Initial residual = 1.16845e-06, Final residual = 6.07991e-07, No Iterations 1
time step continuity errors : sum local = 1.76393e-09, global = -1.89445e-19, cumulative = -5.70306e-18
DICPCG:  Solving for p, Initial residual = 8.87803e-07, Final residual = 8.87803e-07, No Iterations 0
time step continuity errors : sum local = 2.38175e-09, global = -2.73833e-19, cumulative = -5.97689e-18
ExecutionTime = 3.02 s  ClockTime = 3 s

Time = 0.4725

Courant Number mean: 0.224823 max: 0.926451
smoothSolver:  Solving for Ux, Initial residual = 1.02214e-06, Final residual = 1.02214e-06, No Iterations 0
smoothSolver:  Solving for Uy, Initial residual = 2.5409e-06, Final residual = 2.5409e-06, No Iterations 0
DICPCG:  Solving for p, Initial residual = 1.13486e-06, Final residual = 5.87205e-07, No Iterations 1
time step continuity errors : sum local = 1.7191e-09, global = -1.29402e-20, cumulative = -5.98983e-18
DICPCG:  Solving for p, Initial residual = 8.6236e-07, Final residual = 8.6236e-07, No Iterations 0
time step continuity errors : sum local = 2.32662e-09, global = -4.13011e-19, cumulative = -6.40284e-18
ExecutionTime = 3.02 s  ClockTime = 3 s

Time = 0.475

Courant Number mean: 0.224823 max: 0.926451
smoothSolver:  Solving for Ux, Initial residual = 1.00635e-06, Final residual = 1.00635e-06, No Iterations 0
smoothSolver:  Solving for Uy, Initial residual = 2.5042e-06, Final residual = 2.5042e-06, No Iterations 0
DICPCG:  Solving for p, Initial residual = 1.1091e-06, Final residual = 5.64532e-07, No Iterations 1
time step continuity errors : sum local = 1.66992e-09, global = 8.0511e-19, cumulative = -5.59773e-18
DICPCG:  Solving for p, Initial residual = 8.28748e-07, Final residual = 8.28748e-07, No Iterations 0
time step continuity errors : sum local = 2.25328e-09, global = -4.15948e-19, cumulative = -6.01368e-18
ExecutionTime = 3.04 s  ClockTime = 3 s

Time = 0.4775

Courant Number mean: 0.224823 max: 0.926451
smoothSolver:  Solving for Ux, Initial residual = 9.90796e-07, Final residual = 9.90796e-07, No Iterations 0
smoothSolver:  Solving for Uy, Initial residual = 2.46662e-06, Final residual = 2.46662e-06, No Iterations 0
DICPCG:  Solving for p, Initial residual = 1.06495e-06, Final residual = 5.39075e-07, No Iterations 1
time step continuity errors : sum local = 1.61444e-09, global = 2.48619e-20, cumulative = -5.98882e-18
DICPCG:  Solving for p, Initial residual = 7.96563e-07, Final residual = 7.96563e-07, No Iterations 0
time step continuity errors : sum local = 2.18294e-09, global = 5.80231e-19, cumulative = -5.40859e-18
ExecutionTime = 3.04 s  ClockTime = 3 s

Time = 0.48

Courant Number mean: 0.224823 max: 0.926451
smoothSolver:  Solving for Ux, Initial residual = 9.75742e-07, Final residual = 9.75742e-07, No Iterations 0
smoothSolver:  Solving for Uy, Initial residual = 2.43055e-06, Final residual = 2.43055e-06, No Iterations 0
DICPCG:  Solving for p, Initial residual = 1.0305e-06, Final residual = 5.18196e-07, No Iterations 1
time step continuity errors : sum local = 1.56891e-09, global = -2.77959e-19, cumulative = -5.68655e-18
DICPCG:  Solving for p, Initial residual = 7.66849e-07, Final residual = 7.66849e-07, No Iterations 0
time step continuity errors : sum local = 2.11789e-09, global = -3.5667e-20, cumulative = -5.72221e-18
ExecutionTime = 3.05 s  ClockTime = 3 s

Time = 0.4825

Courant Number mean: 0.224823 max: 0.926451
smoothSolver:  Solving for Ux, Initial residual = 9.61155e-07, Final residual = 9.61155e-07, No Iterations 0
smoothSolver:  Solving for Uy, Initial residual = 2.39412e-06, Final residual = 2.39412e-06, No Iterations 0
DICPCG:  Solving for p, Initial residual = 9.90849e-07, Final residual = 9.90849e-07, No Iterations 0
time step continuity errors : sum local = 2.6124e-09, global = -8.64559e-20, cumulative = -5.80867e-18
DICPCG:  Solving for p, Initial residual = 1.12212e-06, Final residual = 5.25268e-07, No Iterations 1
time step continuity errors : sum local = 1.58494e-09, global = 6.89465e-19, cumulative = -5.1192e-18
ExecutionTime = 3.06 s  ClockTime = 3 s

Time = 0.485

Courant Number mean: 0.224823 max: 0.926451
smoothSolver:  Solving for Ux, Initial residual = 9.47062e-07, Final residual = 9.47062e-07, No Iterations 0
smoothSolver:  Solving for Uy, Initial residual = 2.35859e-06, Final residual = 2.35859e-06, No Iterations 0
DICPCG:  Solving for p, Initial residual = 9.09813e-07, Final residual = 9.09813e-07, No Iterations 0
time step continuity errors : sum local = 2.43392e-09, global = 2.38523e-19, cumulative = -4.88068e-18
DICPCG:  Solving for p, Initial residual = 1.148e-06, Final residual = 5.30932e-07, No Iterations 1
time step continuity errors : sum local = 1.59768e-09, global = -1.52672e-19, cumulative = -5.03335e-18
ExecutionTime = 3.07 s  ClockTime = 3 s

Time = 0.4875

Courant Number mean: 0.224823 max: 0.926451
smoothSolver:  Solving for Ux, Initial residual = 9.32564e-07, Final residual = 9.32564e-07, No Iterations 0
smoothSolver:  Solving for Uy, Initial residual = 2.3226e-06, Final residual = 2.3226e-06, No Iterations 0
DICPCG:  Solving for p, Initial residual = 8.49865e-07, Final residual = 8.49865e-07, No Iterations 0
time step continuity errors : sum local = 2.30179e-09, global = 2.95433e-19, cumulative = -4.73792e-18
DICPCG:  Solving for p, Initial residual = 1.04784e-06, Final residual = 5.47836e-07, No Iterations 1
time step continuity errors : sum local = 1.63515e-09, global = -2.3282e-19, cumulative = -4.97074e-18
ExecutionTime = 3.08 s  ClockTime = 3 s

Time = 0.49

Courant Number mean: 0.224823 max: 0.926451
smoothSolver:  Solving for Ux, Initial residual = 9.1858e-07, Final residual = 9.1858e-07, No Iterations 0
smoothSolver:  Solving for Uy, Initial residual = 2.28608e-06, Final residual = 2.28608e-06, No Iterations 0
DICPCG:  Solving for p, Initial residual = 8.65012e-07, Final residual = 8.65012e-07, No Iterations 0
time step continuity errors : sum local = 2.33539e-09, global = -4.67926e-19, cumulative = -5.43867e-18
DICPCG:  Solving for p, Initial residual = 1.06116e-06, Final residual = 5.29046e-07, No Iterations 1
time step continuity errors : sum local = 1.59375e-09, global = -1.5111e-19, cumulative = -5.58978e-18
ExecutionTime = 3.08 s  ClockTime = 3 s

Time = 0.4925

Courant Number mean: 0.224823 max: 0.926451
smoothSolver:  Solving for Ux, Initial residual = 9.0496e-07, Final residual = 9.0496e-07, No Iterations 0
smoothSolver:  Solving for Uy, Initial residual = 2.25167e-06, Final residual = 2.25167e-06, No Iterations 0
DICPCG:  Solving for p, Initial residual = 8.44893e-07, Final residual = 8.44893e-07, No Iterations 0
time step continuity errors : sum local = 2.29103e-09, global = 3.03038e-19, cumulative = -5.28674e-18
DICPCG:  Solving for p, Initial residual = 1.04205e-06, Final residual = 5.07689e-07, No Iterations 1
time step continuity errors : sum local = 1.54663e-09, global = -1.16405e-19, cumulative = -5.40314e-18
ExecutionTime = 3.09 s  ClockTime = 3 s

Time = 0.495

Courant Number mean: 0.224824 max: 0.926451
smoothSolver:  Solving for Ux, Initial residual = 8.91752e-07, Final residual = 8.91752e-07, No Iterations 0
smoothSolver:  Solving for Uy, Initial residual = 2.2167e-06, Final residual = 2.2167e-06, No Iterations 0
DICPCG:  Solving for p, Initial residual = 8.1349e-07, Final residual = 8.1349e-07, No Iterations 0
time step continuity errors : sum local = 2.22172e-09, global = -1.0209e-19, cumulative = -5.50523e-18
DICPCG:  Solving for p, Initial residual = 1.00651e-06, Final residual = 4.90535e-07, No Iterations 1
time step continuity errors : sum local = 1.50874e-09, global = -1.58581e-19, cumulative = -5.66381e-18
ExecutionTime = 3.1 s  ClockTime = 3 s

Time = 0.4975

Courant Number mean: 0.224824 max: 0.926451
smoothSolver:  Solving for Ux, Initial residual = 8.78645e-07, Final residual = 8.78645e-07, No Iterations 0
smoothSolver:  Solving for Uy, Initial residual = 2.1833e-06, Final residual = 2.1833e-06, No Iterations 0
DICPCG:  Solving for p, Initial residual = 7.85274e-07, Final residual = 7.85274e-07, No Iterations 0
time step continuity errors : sum local = 2.15942e-09, global = 1.93462e-19, cumulative = -5.47035e-18
DICPCG:  Solving for p, Initial residual = 9.71423e-07, Final residual = 9.71423e-07, No Iterations 0
time step continuity errors : sum local = 2.57037e-09, global = 1.45785e-19, cumulative = -5.32457e-18
ExecutionTime = 3.11 s  ClockTime = 3 s

Time = 0.5

Courant Number mean: 0.224824 max: 0.926451
smoothSolver:  Solving for Ux, Initial residual = 8.67864e-07, Final residual = 8.67864e-07, No Iterations 0
smoothSolver:  Solving for Uy, Initial residual = 2.15516e-06, Final residual = 2.15516e-06, No Iterations 0
DICPCG:  Solving for p, Initial residual = 1.12118e-06, Final residual = 4.93065e-07, No Iterations 1
time step continuity errors : sum local = 1.51429e-09, global = 6.45201e-20, cumulative = -5.26005e-18
DICPCG:  Solving for p, Initial residual = 8.29987e-07, Final residual = 8.29987e-07, No Iterations 0
time step continuity errors : sum local = 2.25808e-09, global = 1.46732e-19, cumulative = -5.11331e-18
ExecutionTime = 3.16 s  ClockTime = 3 s

End

