/*---------------------------------------------------------------------------*\
  =========                 |
  \\      /  F ield         | OpenFOAM: The Open Source CFD Toolbox
   \\    /   O peration     | Website:  https://openfoam.org
    \\  /    A nd           | Version:  7
     \\/     M anipulation  |
\*---------------------------------------------------------------------------*/
Build  : 7-49b2b3b8b082
Exec   : icoFoam
Date   : Mar 03 2021
Time   : 11:49:46
Host   : "c401-061.stampede2.tacc.utexas.edu"
PID    : 125170
I/O    : uncollated
Case   : /work/06798/steinjd/stampede2/coe-347/cavity
nProcs : 1
sigFpe : Enabling floating point exception trapping (FOAM_SIGFPE).
fileModificationChecking : Monitoring run-time modified files using timeStampMaster (fileModificationSkew 10)
allowSystemOperations : Allowing user-supplied system call operations

// * * * * * * * * * * * * * * * * * * * * * * * * * * * * * * * * * * * * * //
Create time

Create mesh for time = 0

Reading transportProperties

Reading field p

Reading field U

Reading/calculating face flux field phi


Starting time loop

Time = 0.00125

Courant Number mean: 0 max: 0
smoothSolver:  Solving for Ux, Initial residual = 1, Final residual = 9.48242e-06, No Iterations 66
smoothSolver:  Solving for Uy, Initial residual = 0, Final residual = 0, No Iterations 0
DICPCG:  Solving for p, Initial residual = 1, Final residual = 0.0455602, No Iterations 95
time step continuity errors : sum local = 3.96614e-05, global = 3.11227e-21, cumulative = 3.11227e-21
DICPCG:  Solving for p, Initial residual = 0.66603, Final residual = 7.02216e-07, No Iterations 139
time step continuity errors : sum local = 9.33266e-10, global = 3.99994e-20, cumulative = 4.31116e-20
ExecutionTime = 0.39 s  ClockTime = 1 s

Time = 0.0025

Courant Number mean: 0.0638197 max: 0.788021
smoothSolver:  Solving for Ux, Initial residual = 0.124505, Final residual = 9.82456e-06, No Iterations 68
smoothSolver:  Solving for Uy, Initial residual = 0.367293, Final residual = 8.87817e-06, No Iterations 78
DICPCG:  Solving for p, Initial residual = 0.717888, Final residual = 0.0352598, No Iterations 47
time step continuity errors : sum local = 6.03682e-05, global = -5.93192e-20, cumulative = -1.62076e-20
DICPCG:  Solving for p, Initial residual = 0.65761, Final residual = 8.04352e-07, No Iterations 138
time step continuity errors : sum local = 1.21921e-09, global = 8.69137e-20, cumulative = 7.07062e-20
ExecutionTime = 0.59 s  ClockTime = 1 s

Time = 0.00375

Courant Number mean: 0.0964275 max: 0.911225
smoothSolver:  Solving for Ux, Initial residual = 0.0502889, Final residual = 9.80603e-06, No Iterations 57
smoothSolver:  Solving for Uy, Initial residual = 0.177567, Final residual = 9.30311e-06, No Iterations 71
DICPCG:  Solving for p, Initial residual = 0.722018, Final residual = 0.0348741, No Iterations 89
time step continuity errors : sum local = 4.96371e-05, global = -1.64361e-19, cumulative = -9.36546e-20
DICPCG:  Solving for p, Initial residual = 0.47929, Final residual = 7.5663e-07, No Iterations 132
time step continuity errors : sum local = 1.5071e-09, global = -1.23409e-20, cumulative = -1.05996e-19
ExecutionTime = 0.77 s  ClockTime = 1 s

Time = 0.005

Courant Number mean: 0.114109 max: 0.919396
smoothSolver:  Solving for Ux, Initial residual = 0.0333495, Final residual = 8.97394e-06, No Iterations 58
smoothSolver:  Solving for Uy, Initial residual = 0.110843, Final residual = 9.51524e-06, No Iterations 68
DICPCG:  Solving for p, Initial residual = 0.58769, Final residual = 0.0219021, No Iterations 88
time step continuity errors : sum local = 2.72127e-05, global = 2.34485e-19, cumulative = 1.2849e-19
DICPCG:  Solving for p, Initial residual = 0.45147, Final residual = 8.95436e-07, No Iterations 132
time step continuity errors : sum local = 1.32239e-09, global = 1.46201e-19, cumulative = 2.7469e-19
ExecutionTime = 0.95 s  ClockTime = 1 s

Time = 0.00625

Courant Number mean: 0.127613 max: 0.932631
smoothSolver:  Solving for Ux, Initial residual = 0.0209514, Final residual = 9.87375e-06, No Iterations 54
smoothSolver:  Solving for Uy, Initial residual = 0.061239, Final residual = 9.47134e-06, No Iterations 65
DICPCG:  Solving for p, Initial residual = 0.47951, Final residual = 0.0212184, No Iterations 76
time step continuity errors : sum local = 1.98854e-05, global = 4.53502e-20, cumulative = 3.2004e-19
DICPCG:  Solving for p, Initial residual = 0.403482, Final residual = 7.11644e-07, No Iterations 135
time step continuity errors : sum local = 7.24413e-10, global = -2.89061e-20, cumulative = 2.91134e-19
ExecutionTime = 1.13 s  ClockTime = 2 s

Time = 0.0075

Courant Number mean: 0.138226 max: 0.937646
smoothSolver:  Solving for Ux, Initial residual = 0.0154617, Final residual = 9.17279e-06, No Iterations 54
smoothSolver:  Solving for Uy, Initial residual = 0.0397295, Final residual = 9.05715e-06, No Iterations 63
DICPCG:  Solving for p, Initial residual = 0.331133, Final residual = 0.0150252, No Iterations 87
time step continuity errors : sum local = 1.18218e-05, global = -1.29836e-19, cumulative = 1.61298e-19
DICPCG:  Solving for p, Initial residual = 0.28999, Final residual = 8.14574e-07, No Iterations 130
time step continuity errors : sum local = 6.70422e-10, global = -8.84802e-20, cumulative = 7.28178e-20
ExecutionTime = 1.3 s  ClockTime = 2 s

Time = 0.00875

Courant Number mean: 0.147014 max: 0.94178
smoothSolver:  Solving for Ux, Initial residual = 0.0112875, Final residual = 9.31655e-06, No Iterations 52
smoothSolver:  Solving for Uy, Initial residual = 0.0304162, Final residual = 8.9005e-06, No Iterations 62
DICPCG:  Solving for p, Initial residual = 0.20294, Final residual = 0.00947895, No Iterations 34
time step continuity errors : sum local = 7.33013e-06, global = 1.70231e-19, cumulative = 2.43049e-19
DICPCG:  Solving for p, Initial residual = 0.184125, Final residual = 9.30063e-07, No Iterations 129
time step continuity errors : sum local = 6.26695e-10, global = -8.64069e-20, cumulative = 1.56642e-19
ExecutionTime = 1.46 s  ClockTime = 2 s

Time = 0.01

Courant Number mean: 0.154479 max: 0.944969
smoothSolver:  Solving for Ux, Initial residual = 0.0105243, Final residual = 9.7789e-06, No Iterations 52
smoothSolver:  Solving for Uy, Initial residual = 0.0272275, Final residual = 9.2172e-06, No Iterations 61
DICPCG:  Solving for p, Initial residual = 0.160697, Final residual = 0.00799113, No Iterations 78
time step continuity errors : sum local = 5.26876e-06, global = 2.28671e-19, cumulative = 3.85314e-19
DICPCG:  Solving for p, Initial residual = 0.131539, Final residual = 8.25279e-07, No Iterations 129
time step continuity errors : sum local = 6.19704e-10, global = 9.51839e-20, cumulative = 4.80498e-19
ExecutionTime = 1.63 s  ClockTime = 2 s

Time = 0.01125

Courant Number mean: 0.160927 max: 0.947911
smoothSolver:  Solving for Ux, Initial residual = 0.00833581, Final residual = 9.71517e-06, No Iterations 50
smoothSolver:  Solving for Uy, Initial residual = 0.0233928, Final residual = 9.22864e-06, No Iterations 60
DICPCG:  Solving for p, Initial residual = 0.108462, Final residual = 0.00503169, No Iterations 75
time step continuity errors : sum local = 3.14131e-06, global = 1.88936e-19, cumulative = 6.69433e-19
DICPCG:  Solving for p, Initial residual = 0.0960873, Final residual = 9.79661e-07, No Iterations 128
time step continuity errors : sum local = 6.39882e-10, global = -1.2737e-19, cumulative = 5.42063e-19
ExecutionTime = 1.8 s  ClockTime = 2 s

Time = 0.0125

Courant Number mean: 0.166551 max: 0.949985
smoothSolver:  Solving for Ux, Initial residual = 0.00651996, Final residual = 9.23212e-06, No Iterations 49
smoothSolver:  Solving for Uy, Initial residual = 0.018185, Final residual = 9.64898e-06, No Iterations 58
DICPCG:  Solving for p, Initial residual = 0.0609629, Final residual = 0.00289187, No Iterations 75
time step continuity errors : sum local = 1.72344e-06, global = 2.07983e-19, cumulative = 7.50046e-19
DICPCG:  Solving for p, Initial residual = 0.0548713, Final residual = 9.41958e-07, No Iterations 127
time step continuity errors : sum local = 5.65446e-10, global = -5.59634e-20, cumulative = 6.94083e-19
ExecutionTime = 1.96 s  ClockTime = 2 s

Time = 0.01375

Courant Number mean: 0.171476 max: 0.951196
smoothSolver:  Solving for Ux, Initial residual = 0.00556948, Final residual = 9.32233e-06, No Iterations 48
smoothSolver:  Solving for Uy, Initial residual = 0.0155274, Final residual = 9.9375e-06, No Iterations 57
DICPCG:  Solving for p, Initial residual = 0.0527232, Final residual = 0.00224047, No Iterations 44
time step continuity errors : sum local = 1.59241e-06, global = 2.74332e-19, cumulative = 9.68415e-19
DICPCG:  Solving for p, Initial residual = 0.0490102, Final residual = 7.94564e-07, No Iterations 126
time step continuity errors : sum local = 4.67145e-10, global = 1.35909e-19, cumulative = 1.10432e-18
ExecutionTime = 2.12 s  ClockTime = 3 s

Time = 0.015

Courant Number mean: 0.175876 max: 0.952738
smoothSolver:  Solving for Ux, Initial residual = 0.00552222, Final residual = 9.8272e-06, No Iterations 48
smoothSolver:  Solving for Uy, Initial residual = 0.0133236, Final residual = 9.3146e-06, No Iterations 56
DICPCG:  Solving for p, Initial residual = 0.0443007, Final residual = 0.00207943, No Iterations 91
time step continuity errors : sum local = 1.22056e-06, global = 1.4962e-19, cumulative = 1.25394e-18
DICPCG:  Solving for p, Initial residual = 0.0394837, Final residual = 6.02583e-07, No Iterations 128
time step continuity errors : sum local = 3.71944e-10, global = -1.17604e-20, cumulative = 1.24218e-18
ExecutionTime = 2.29 s  ClockTime = 3 s

Time = 0.01625

Courant Number mean: 0.179825 max: 0.95396
smoothSolver:  Solving for Ux, Initial residual = 0.00450378, Final residual = 8.78477e-06, No Iterations 47
smoothSolver:  Solving for Uy, Initial residual = 0.0126717, Final residual = 9.15571e-06, No Iterations 56
DICPCG:  Solving for p, Initial residual = 0.0337846, Final residual = 0.00129304, No Iterations 91
time step continuity errors : sum local = 7.48206e-07, global = -1.68358e-19, cumulative = 1.07383e-18
DICPCG:  Solving for p, Initial residual = 0.0307366, Final residual = 9.7962e-07, No Iterations 125
time step continuity errors : sum local = 5.77579e-10, global = 4.55814e-20, cumulative = 1.11941e-18
ExecutionTime = 2.45 s  ClockTime = 3 s

Time = 0.0175

Courant Number mean: 0.183369 max: 0.95493
smoothSolver:  Solving for Ux, Initial residual = 0.00396085, Final residual = 9.40825e-06, No Iterations 46
smoothSolver:  Solving for Uy, Initial residual = 0.0107114, Final residual = 9.00975e-06, No Iterations 55
DICPCG:  Solving for p, Initial residual = 0.0247378, Final residual = 0.00111972, No Iterations 91
time step continuity errors : sum local = 6.44113e-07, global = 8.2109e-20, cumulative = 1.20152e-18
DICPCG:  Solving for p, Initial residual = 0.0226282, Final residual = 9.48798e-07, No Iterations 124
time step continuity errors : sum local = 5.49122e-10, global = 2.74923e-20, cumulative = 1.22901e-18
ExecutionTime = 2.62 s  ClockTime = 3 s

Time = 0.01875

Courant Number mean: 0.18657 max: 0.955797
smoothSolver:  Solving for Ux, Initial residual = 0.00353596, Final residual = 9.74123e-06, No Iterations 45
smoothSolver:  Solving for Uy, Initial residual = 0.00958826, Final residual = 9.37489e-06, No Iterations 54
DICPCG:  Solving for p, Initial residual = 0.0205352, Final residual = 0.000893365, No Iterations 44
time step continuity errors : sum local = 6.27287e-07, global = 6.35585e-20, cumulative = 1.29257e-18
DICPCG:  Solving for p, Initial residual = 0.0190281, Final residual = 9.45232e-07, No Iterations 122
time step continuity errors : sum local = 5.41899e-10, global = -8.10742e-20, cumulative = 1.21149e-18
ExecutionTime = 2.76 s  ClockTime = 3 s

Time = 0.02

Courant Number mean: 0.18949 max: 0.956542
smoothSolver:  Solving for Ux, Initial residual = 0.00336166, Final residual = 9.38845e-06, No Iterations 45
smoothSolver:  Solving for Uy, Initial residual = 0.00857596, Final residual = 9.30636e-06, No Iterations 53
DICPCG:  Solving for p, Initial residual = 0.0216013, Final residual = 0.00097286, No Iterations 91
time step continuity errors : sum local = 5.59701e-07, global = 9.62522e-20, cumulative = 1.30775e-18
DICPCG:  Solving for p, Initial residual = 0.0199561, Final residual = 7.59629e-07, No Iterations 126
time step continuity errors : sum local = 4.45598e-10, global = 5.59208e-20, cumulative = 1.36367e-18
ExecutionTime = 2.92 s  ClockTime = 3 s

Time = 0.02125

Courant Number mean: 0.192148 max: 0.957222
smoothSolver:  Solving for Ux, Initial residual = 0.00292625, Final residual = 9.22665e-06, No Iterations 44
smoothSolver:  Solving for Uy, Initial residual = 0.00810057, Final residual = 8.89318e-06, No Iterations 53
DICPCG:  Solving for p, Initial residual = 0.0181737, Final residual = 0.000907123, No Iterations 90
time step continuity errors : sum local = 5.19798e-07, global = 2.74562e-19, cumulative = 1.63823e-18
DICPCG:  Solving for p, Initial residual = 0.0169499, Final residual = 8.88949e-07, No Iterations 123
time step continuity errors : sum local = 5.13158e-10, global = -5.35111e-21, cumulative = 1.63288e-18
ExecutionTime = 3.08 s  ClockTime = 4 s

Time = 0.0225

Courant Number mean: 0.194573 max: 0.957788
smoothSolver:  Solving for Ux, Initial residual = 0.00263888, Final residual = 9.78162e-06, No Iterations 43
smoothSolver:  Solving for Uy, Initial residual = 0.00717694, Final residual = 9.06561e-06, No Iterations 52
DICPCG:  Solving for p, Initial residual = 0.013595, Final residual = 0.000519213, No Iterations 91
time step continuity errors : sum local = 2.96548e-07, global = -7.57516e-21, cumulative = 1.6253e-18
DICPCG:  Solving for p, Initial residual = 0.0126821, Final residual = 9.2171e-07, No Iterations 120
time step continuity errors : sum local = 5.28303e-10, global = -1.30833e-19, cumulative = 1.49447e-18
ExecutionTime = 3.24 s  ClockTime = 4 s

Time = 0.02375

Courant Number mean: 0.196787 max: 0.958296
smoothSolver:  Solving for Ux, Initial residual = 0.00240067, Final residual = 9.0065e-06, No Iterations 43
smoothSolver:  Solving for Uy, Initial residual = 0.00652624, Final residual = 9.49475e-06, No Iterations 51
DICPCG:  Solving for p, Initial residual = 0.0111329, Final residual = 0.000462387, No Iterations 43
time step continuity errors : sum local = 2.88947e-07, global = 8.90893e-20, cumulative = 1.58356e-18
DICPCG:  Solving for p, Initial residual = 0.0104191, Final residual = 8.71005e-07, No Iterations 120
time step continuity errors : sum local = 4.96242e-10, global = -1.91472e-19, cumulative = 1.39209e-18
ExecutionTime = 3.38 s  ClockTime = 4 s

Time = 0.025

Courant Number mean: 0.198823 max: 0.958751
smoothSolver:  Solving for Ux, Initial residual = 0.00221362, Final residual = 9.52667e-06, No Iterations 42
smoothSolver:  Solving for Uy, Initial residual = 0.00597932, Final residual = 9.83753e-06, No Iterations 50
DICPCG:  Solving for p, Initial residual = 0.0109713, Final residual = 0.000498461, No Iterations 78
time step continuity errors : sum local = 2.84457e-07, global = 1.94943e-20, cumulative = 1.41158e-18
DICPCG:  Solving for p, Initial residual = 0.0103506, Final residual = 8.50666e-07, No Iterations 121
time step continuity errors : sum local = 4.88817e-10, global = -1.60526e-20, cumulative = 1.39553e-18
ExecutionTime = 3.69 s  ClockTime = 4 s

Time = 0.02625

Courant Number mean: 0.2007 max: 0.959161
smoothSolver:  Solving for Ux, Initial residual = 0.00202981, Final residual = 8.79507e-06, No Iterations 42
smoothSolver:  Solving for Uy, Initial residual = 0.00553755, Final residual = 9.15108e-06, No Iterations 50
DICPCG:  Solving for p, Initial residual = 0.00925819, Final residual = 0.00042523, No Iterations 87
time step continuity errors : sum local = 2.42139e-07, global = 3.48327e-19, cumulative = 1.74385e-18
DICPCG:  Solving for p, Initial residual = 0.00872596, Final residual = 9.38259e-07, No Iterations 118
time step continuity errors : sum local = 5.3529e-10, global = 1.17229e-19, cumulative = 1.86108e-18
ExecutionTime = 3.84 s  ClockTime = 4 s

Time = 0.0275

Courant Number mean: 0.202432 max: 0.959542
smoothSolver:  Solving for Ux, Initial residual = 0.00184871, Final residual = 9.18293e-06, No Iterations 41
smoothSolver:  Solving for Uy, Initial residual = 0.00505337, Final residual = 9.50536e-06, No Iterations 49
DICPCG:  Solving for p, Initial residual = 0.00791673, Final residual = 0.00038236, No Iterations 86
time step continuity errors : sum local = 2.18847e-07, global = -2.14731e-20, cumulative = 1.83961e-18
DICPCG:  Solving for p, Initial residual = 0.00750363, Final residual = 8.88017e-07, No Iterations 118
time step continuity errors : sum local = 5.06389e-10, global = -3.00756e-19, cumulative = 1.53885e-18
ExecutionTime = 3.99 s  ClockTime = 5 s

Time = 0.02875

Courant Number mean: 0.204027 max: 0.95985
smoothSolver:  Solving for Ux, Initial residual = 0.00170613, Final residual = 9.71162e-06, No Iterations 40
smoothSolver:  Solving for Uy, Initial residual = 0.0046568, Final residual = 8.80944e-06, No Iterations 49
DICPCG:  Solving for p, Initial residual = 0.00778175, Final residual = 0.000360319, No Iterations 41
time step continuity errors : sum local = 2.22881e-07, global = -1.24531e-19, cumulative = 1.41432e-18
DICPCG:  Solving for p, Initial residual = 0.00743413, Final residual = 7.70934e-07, No Iterations 118
time step continuity errors : sum local = 4.40649e-10, global = 9.76715e-20, cumulative = 1.51199e-18
ExecutionTime = 4.13 s  ClockTime = 5 s

Time = 0.03

Courant Number mean: 0.205501 max: 0.960143
smoothSolver:  Solving for Ux, Initial residual = 0.00158369, Final residual = 9.03686e-06, No Iterations 40
smoothSolver:  Solving for Uy, Initial residual = 0.0043183, Final residual = 9.22262e-06, No Iterations 48
DICPCG:  Solving for p, Initial residual = 0.00762793, Final residual = 0.00033246, No Iterations 75
time step continuity errors : sum local = 1.90187e-07, global = -1.42773e-20, cumulative = 1.49772e-18
DICPCG:  Solving for p, Initial residual = 0.00716921, Final residual = 9.31742e-07, No Iterations 120
time step continuity errors : sum local = 5.32332e-10, global = 3.08907e-19, cumulative = 1.80662e-18
ExecutionTime = 4.28 s  ClockTime = 5 s

Time = 0.03125

Courant Number mean: 0.206863 max: 0.960411
smoothSolver:  Solving for Ux, Initial residual = 0.00145943, Final residual = 9.50208e-06, No Iterations 39
smoothSolver:  Solving for Uy, Initial residual = 0.00399927, Final residual = 9.73067e-06, No Iterations 47
DICPCG:  Solving for p, Initial residual = 0.00659114, Final residual = 0.000300415, No Iterations 36
time step continuity errors : sum local = 1.96317e-07, global = -4.63674e-21, cumulative = 1.80199e-18
DICPCG:  Solving for p, Initial residual = 0.00621996, Final residual = 7.21429e-07, No Iterations 119
time step continuity errors : sum local = 4.10738e-10, global = 1.17953e-19, cumulative = 1.91994e-18
ExecutionTime = 4.41 s  ClockTime = 5 s

Time = 0.0325

Courant Number mean: 0.208122 max: 0.960644
smoothSolver:  Solving for Ux, Initial residual = 0.00136354, Final residual = 8.90838e-06, No Iterations 39
smoothSolver:  Solving for Uy, Initial residual = 0.00371118, Final residual = 8.98114e-06, No Iterations 47
DICPCG:  Solving for p, Initial residual = 0.0068838, Final residual = 0.000292901, No Iterations 75
time step continuity errors : sum local = 1.67111e-07, global = 2.38919e-20, cumulative = 1.94383e-18
DICPCG:  Solving for p, Initial residual = 0.00650375, Final residual = 8.33981e-07, No Iterations 115
time step continuity errors : sum local = 4.76652e-10, global = -2.86147e-19, cumulative = 1.65769e-18
ExecutionTime = 4.56 s  ClockTime = 5 s

Time = 0.03375

Courant Number mean: 0.209289 max: 0.960872
smoothSolver:  Solving for Ux, Initial residual = 0.00125518, Final residual = 9.30819e-06, No Iterations 38
smoothSolver:  Solving for Uy, Initial residual = 0.00345381, Final residual = 9.51634e-06, No Iterations 46
DICPCG:  Solving for p, Initial residual = 0.00580729, Final residual = 0.000273931, No Iterations 74
time step continuity errors : sum local = 1.56567e-07, global = 2.07421e-19, cumulative = 1.86511e-18
DICPCG:  Solving for p, Initial residual = 0.00545432, Final residual = 8.78381e-07, No Iterations 112
time step continuity errors : sum local = 5.00686e-10, global = 7.8364e-20, cumulative = 1.94347e-18
ExecutionTime = 4.71 s  ClockTime = 5 s

Time = 0.035

Courant Number mean: 0.210373 max: 0.961052
smoothSolver:  Solving for Ux, Initial residual = 0.00116543, Final residual = 9.95615e-06, No Iterations 37
smoothSolver:  Solving for Uy, Initial residual = 0.00318413, Final residual = 8.83174e-06, No Iterations 46
DICPCG:  Solving for p, Initial residual = 0.00526031, Final residual = 0.000233031, No Iterations 87
time step continuity errors : sum local = 1.33097e-07, global = -3.64573e-20, cumulative = 1.90701e-18
DICPCG:  Solving for p, Initial residual = 0.00497791, Final residual = 9.89245e-07, No Iterations 111
time step continuity errors : sum local = 5.63428e-10, global = -9.40902e-20, cumulative = 1.81292e-18
ExecutionTime = 4.85 s  ClockTime = 5 s

Time = 0.03625

Courant Number mean: 0.211382 max: 0.961241
smoothSolver:  Solving for Ux, Initial residual = 0.00107312, Final residual = 9.18519e-06, No Iterations 37
smoothSolver:  Solving for Uy, Initial residual = 0.00295184, Final residual = 9.33008e-06, No Iterations 45
DICPCG:  Solving for p, Initial residual = 0.00463521, Final residual = 0.000216426, No Iterations 36
time step continuity errors : sum local = 1.33266e-07, global = 3.4158e-19, cumulative = 2.1545e-18
DICPCG:  Solving for p, Initial residual = 0.00438979, Final residual = 7.99643e-07, No Iterations 111
time step continuity errors : sum local = 4.55915e-10, global = -9.62875e-20, cumulative = 2.05822e-18
ExecutionTime = 4.97 s  ClockTime = 5 s

Time = 0.0375

Courant Number mean: 0.212319 max: 0.961397
smoothSolver:  Solving for Ux, Initial residual = 0.00100022, Final residual = 9.76292e-06, No Iterations 36
smoothSolver:  Solving for Uy, Initial residual = 0.00275686, Final residual = 9.88704e-06, No Iterations 44
DICPCG:  Solving for p, Initial residual = 0.00481019, Final residual = 0.000173945, No Iterations 75
time step continuity errors : sum local = 9.9233e-08, global = -6.31074e-20, cumulative = 1.99511e-18
DICPCG:  Solving for p, Initial residual = 0.00454608, Final residual = 7.8062e-07, No Iterations 113
time step continuity errors : sum local = 4.44515e-10, global = -1.39446e-20, cumulative = 1.98116e-18
ExecutionTime = 5.12 s  ClockTime = 6 s

Time = 0.03875

Courant Number mean: 0.213191 max: 0.96155
smoothSolver:  Solving for Ux, Initial residual = 0.000934536, Final residual = 9.12703e-06, No Iterations 36
smoothSolver:  Solving for Uy, Initial residual = 0.0025608, Final residual = 9.18697e-06, No Iterations 44
DICPCG:  Solving for p, Initial residual = 0.00359361, Final residual = 0.000160225, No Iterations 43
time step continuity errors : sum local = 1.09812e-07, global = -1.59069e-19, cumulative = 1.82209e-18
DICPCG:  Solving for p, Initial residual = 0.00337741, Final residual = 9.67064e-07, No Iterations 113
time step continuity errors : sum local = 5.50255e-10, global = 6.46606e-20, cumulative = 1.88676e-18
ExecutionTime = 5.24 s  ClockTime = 6 s

Time = 0.04

Courant Number mean: 0.214004 max: 0.961684
smoothSolver:  Solving for Ux, Initial residual = 0.00088928, Final residual = 9.85099e-06, No Iterations 35
smoothSolver:  Solving for Uy, Initial residual = 0.00236146, Final residual = 9.57562e-06, No Iterations 43
DICPCG:  Solving for p, Initial residual = 0.00429465, Final residual = 0.000204387, No Iterations 76
time step continuity errors : sum local = 1.16795e-07, global = -1.06511e-19, cumulative = 1.78024e-18
DICPCG:  Solving for p, Initial residual = 0.00403804, Final residual = 7.91385e-07, No Iterations 113
time step continuity errors : sum local = 4.52054e-10, global = 3.8716e-20, cumulative = 1.81896e-18
ExecutionTime = 5.38 s  ClockTime = 6 s

Time = 0.04125

Courant Number mean: 0.214759 max: 0.96181
smoothSolver:  Solving for Ux, Initial residual = 0.000811764, Final residual = 8.99183e-06, No Iterations 35
smoothSolver:  Solving for Uy, Initial residual = 0.00225167, Final residual = 9.13412e-06, No Iterations 43
DICPCG:  Solving for p, Initial residual = 0.00362779, Final residual = 0.000171116, No Iterations 85
time step continuity errors : sum local = 9.74564e-08, global = 2.46384e-19, cumulative = 2.06534e-18
DICPCG:  Solving for p, Initial residual = 0.00341627, Final residual = 9.57678e-07, No Iterations 111
time step continuity errors : sum local = 5.45249e-10, global = -1.43815e-19, cumulative = 1.92153e-18
ExecutionTime = 5.52 s  ClockTime = 6 s

Time = 0.0425

Courant Number mean: 0.215464 max: 0.961923
smoothSolver:  Solving for Ux, Initial residual = 0.000752777, Final residual = 9.57501e-06, No Iterations 34
smoothSolver:  Solving for Uy, Initial residual = 0.00207236, Final residual = 9.61181e-06, No Iterations 42
DICPCG:  Solving for p, Initial residual = 0.00310843, Final residual = 0.000133774, No Iterations 75
time step continuity errors : sum local = 7.62232e-08, global = 3.06584e-19, cumulative = 2.22811e-18
DICPCG:  Solving for p, Initial residual = 0.00292021, Final residual = 8.05157e-07, No Iterations 111
time step continuity errors : sum local = 4.58249e-10, global = -3.95652e-20, cumulative = 2.18855e-18
ExecutionTime = 5.65 s  ClockTime = 6 s

Time = 0.04375

Courant Number mean: 0.21612 max: 0.962021
smoothSolver:  Solving for Ux, Initial residual = 0.000701337, Final residual = 8.95273e-06, No Iterations 34
smoothSolver:  Solving for Uy, Initial residual = 0.0019345, Final residual = 9.0068e-06, No Iterations 42
DICPCG:  Solving for p, Initial residual = 0.00272434, Final residual = 0.000114552, No Iterations 44
time step continuity errors : sum local = 7.94892e-08, global = 3.22433e-20, cumulative = 2.22079e-18
DICPCG:  Solving for p, Initial residual = 0.00258659, Final residual = 9.9256e-07, No Iterations 107
time step continuity errors : sum local = 5.65503e-10, global = -6.62198e-20, cumulative = 2.15457e-18
ExecutionTime = 5.78 s  ClockTime = 6 s

Time = 0.045

Courant Number mean: 0.216732 max: 0.962121
smoothSolver:  Solving for Ux, Initial residual = 0.000673071, Final residual = 9.69867e-06, No Iterations 33
smoothSolver:  Solving for Uy, Initial residual = 0.0017827, Final residual = 9.35495e-06, No Iterations 41
DICPCG:  Solving for p, Initial residual = 0.00324619, Final residual = 0.000145229, No Iterations 76
time step continuity errors : sum local = 8.30199e-08, global = 9.00399e-20, cumulative = 2.24461e-18
DICPCG:  Solving for p, Initial residual = 0.00306695, Final residual = 9.49762e-07, No Iterations 101
time step continuity errors : sum local = 5.41622e-10, global = -2.45111e-19, cumulative = 1.9995e-18
ExecutionTime = 5.9 s  ClockTime = 6 s

Time = 0.04625

Courant Number mean: 0.217302 max: 0.962207
smoothSolver:  Solving for Ux, Initial residual = 0.000612095, Final residual = 8.82438e-06, No Iterations 33
smoothSolver:  Solving for Uy, Initial residual = 0.00171043, Final residual = 8.97599e-06, No Iterations 41
DICPCG:  Solving for p, Initial residual = 0.00265972, Final residual = 0.00013297, No Iterations 85
time step continuity errors : sum local = 7.57326e-08, global = 5.56802e-20, cumulative = 2.05518e-18
DICPCG:  Solving for p, Initial residual = 0.00250969, Final residual = 9.92998e-07, No Iterations 112
time step continuity errors : sum local = 5.6627e-10, global = 1.46969e-19, cumulative = 2.20215e-18
ExecutionTime = 6.04 s  ClockTime = 7 s

Time = 0.0475

Courant Number mean: 0.217835 max: 0.962286
smoothSolver:  Solving for Ux, Initial residual = 0.000572355, Final residual = 9.4664e-06, No Iterations 32
smoothSolver:  Solving for Uy, Initial residual = 0.00157415, Final residual = 9.45071e-06, No Iterations 40
DICPCG:  Solving for p, Initial residual = 0.00230729, Final residual = 0.000107195, No Iterations 84
time step continuity errors : sum local = 6.12126e-08, global = 1.55697e-19, cumulative = 2.35785e-18
DICPCG:  Solving for p, Initial residual = 0.0021787, Final residual = 8.96958e-07, No Iterations 108
time step continuity errors : sum local = 5.10227e-10, global = 2.60597e-19, cumulative = 2.61844e-18
ExecutionTime = 6.18 s  ClockTime = 7 s

Time = 0.04875

Courant Number mean: 0.218331 max: 0.962359
smoothSolver:  Solving for Ux, Initial residual = 0.000532365, Final residual = 8.82747e-06, No Iterations 32
smoothSolver:  Solving for Uy, Initial residual = 0.00147383, Final residual = 8.86656e-06, No Iterations 40
DICPCG:  Solving for p, Initial residual = 0.00218839, Final residual = 0.000108503, No Iterations 40
time step continuity errors : sum local = 6.92116e-08, global = -3.20609e-19, cumulative = 2.29784e-18
DICPCG:  Solving for p, Initial residual = 0.00207846, Final residual = 7.54272e-07, No Iterations 113
time step continuity errors : sum local = 4.29937e-10, global = -3.54589e-20, cumulative = 2.26238e-18
ExecutionTime = 6.3 s  ClockTime = 7 s

Time = 0.05

Courant Number mean: 0.218795 max: 0.962427
smoothSolver:  Solving for Ux, Initial residual = 0.000502871, Final residual = 9.45674e-06, No Iterations 31
smoothSolver:  Solving for Uy, Initial residual = 0.00137462, Final residual = 9.36069e-06, No Iterations 39
DICPCG:  Solving for p, Initial residual = 0.00227908, Final residual = 0.000103745, No Iterations 86
time step continuity errors : sum local = 5.92669e-08, global = -6.92744e-20, cumulative = 2.1931e-18
DICPCG:  Solving for p, Initial residual = 0.00217047, Final residual = 9.37403e-07, No Iterations 108
time step continuity errors : sum local = 5.33927e-10, global = -1.40166e-19, cumulative = 2.05294e-18
ExecutionTime = 6.59 s  ClockTime = 7 s

Time = 0.05125

Courant Number mean: 0.219228 max: 0.962492
smoothSolver:  Solving for Ux, Initial residual = 0.000466786, Final residual = 9.97653e-06, No Iterations 30
smoothSolver:  Solving for Uy, Initial residual = 0.00130018, Final residual = 8.84343e-06, No Iterations 39
DICPCG:  Solving for p, Initial residual = 0.00213289, Final residual = 9.51807e-05, No Iterations 88
time step continuity errors : sum local = 5.43343e-08, global = -9.58161e-20, cumulative = 1.95712e-18
DICPCG:  Solving for p, Initial residual = 0.0020365, Final residual = 8.68562e-07, No Iterations 113
time step continuity errors : sum local = 4.94521e-10, global = -1.05555e-19, cumulative = 1.85157e-18
ExecutionTime = 6.73 s  ClockTime = 7 s

Time = 0.0525

Courant Number mean: 0.219633 max: 0.962548
smoothSolver:  Solving for Ux, Initial residual = 0.000437281, Final residual = 9.38029e-06, No Iterations 30
smoothSolver:  Solving for Uy, Initial residual = 0.00120423, Final residual = 9.34646e-06, No Iterations 38
DICPCG:  Solving for p, Initial residual = 0.00183581, Final residual = 9.13979e-05, No Iterations 74
time step continuity errors : sum local = 5.2019e-08, global = 1.51619e-19, cumulative = 2.00318e-18
DICPCG:  Solving for p, Initial residual = 0.00174104, Final residual = 8.88678e-07, No Iterations 110
time step continuity errors : sum local = 5.06399e-10, global = -8.71755e-20, cumulative = 1.91601e-18
ExecutionTime = 6.85 s  ClockTime = 7 s

Time = 0.05375

Courant Number mean: 0.220011 max: 0.962601
smoothSolver:  Solving for Ux, Initial residual = 0.000408011, Final residual = 9.9755e-06, No Iterations 29
smoothSolver:  Solving for Uy, Initial residual = 0.00112827, Final residual = 9.9714e-06, No Iterations 37
DICPCG:  Solving for p, Initial residual = 0.00164656, Final residual = 7.7873e-05, No Iterations 46
time step continuity errors : sum local = 5.42848e-08, global = -2.24996e-19, cumulative = 1.69101e-18
DICPCG:  Solving for p, Initial residual = 0.00157668, Final residual = 9.36684e-07, No Iterations 107
time step continuity errors : sum local = 5.34198e-10, global = -5.68945e-20, cumulative = 1.63412e-18
ExecutionTime = 6.98 s  ClockTime = 8 s

Time = 0.055

Courant Number mean: 0.220363 max: 0.962648
smoothSolver:  Solving for Ux, Initial residual = 0.000397902, Final residual = 9.64363e-06, No Iterations 29
smoothSolver:  Solving for Uy, Initial residual = 0.00103717, Final residual = 9.08411e-06, No Iterations 37
DICPCG:  Solving for p, Initial residual = 0.00191656, Final residual = 9.05436e-05, No Iterations 87
time step continuity errors : sum local = 5.16647e-08, global = -2.15802e-19, cumulative = 1.41832e-18
DICPCG:  Solving for p, Initial residual = 0.00182517, Final residual = 9.34044e-07, No Iterations 111
time step continuity errors : sum local = 5.31999e-10, global = -1.35077e-19, cumulative = 1.28324e-18
ExecutionTime = 7.1 s  ClockTime = 8 s

Time = 0.05625

Courant Number mean: 0.220693 max: 0.962697
smoothSolver:  Solving for Ux, Initial residual = 0.00035959, Final residual = 9.89137e-06, No Iterations 28
smoothSolver:  Solving for Uy, Initial residual = 0.00101133, Final residual = 8.84763e-06, No Iterations 37
DICPCG:  Solving for p, Initial residual = 0.00172705, Final residual = 7.82116e-05, No Iterations 88
time step continuity errors : sum local = 4.46988e-08, global = 1.75734e-19, cumulative = 1.45897e-18
DICPCG:  Solving for p, Initial residual = 0.00163795, Final residual = 8.86691e-07, No Iterations 108
time step continuity errors : sum local = 5.05341e-10, global = 2.23667e-20, cumulative = 1.48134e-18
ExecutionTime = 7.23 s  ClockTime = 8 s

Time = 0.0575

Courant Number mean: 0.221002 max: 0.96274
smoothSolver:  Solving for Ux, Initial residual = 0.000338049, Final residual = 9.38094e-06, No Iterations 28
smoothSolver:  Solving for Uy, Initial residual = 0.000927515, Final residual = 9.27766e-06, No Iterations 36
DICPCG:  Solving for p, Initial residual = 0.00150407, Final residual = 7.38218e-05, No Iterations 74
time step continuity errors : sum local = 4.24794e-08, global = 6.7296e-20, cumulative = 1.54864e-18
DICPCG:  Solving for p, Initial residual = 0.00142033, Final residual = 9.05793e-07, No Iterations 111
time step continuity errors : sum local = 5.15923e-10, global = -3.49511e-20, cumulative = 1.51368e-18
ExecutionTime = 7.37 s  ClockTime = 8 s

Time = 0.05875

Courant Number mean: 0.221291 max: 0.962778
smoothSolver:  Solving for Ux, Initial residual = 0.000315681, Final residual = 9.98908e-06, No Iterations 27
smoothSolver:  Solving for Uy, Initial residual = 0.0008731, Final residual = 9.95649e-06, No Iterations 35
DICPCG:  Solving for p, Initial residual = 0.00127414, Final residual = 5.97795e-05, No Iterations 43
time step continuity errors : sum local = 3.45649e-08, global = 1.41691e-19, cumulative = 1.65537e-18
DICPCG:  Solving for p, Initial residual = 0.00120903, Final residual = 9.13863e-07, No Iterations 108
time step continuity errors : sum local = 5.20787e-10, global = 1.77175e-20, cumulative = 1.67309e-18
ExecutionTime = 7.48 s  ClockTime = 8 s

Time = 0.06

Courant Number mean: 0.221561 max: 0.962817
smoothSolver:  Solving for Ux, Initial residual = 0.000295652, Final residual = 9.35709e-06, No Iterations 27
smoothSolver:  Solving for Uy, Initial residual = 0.000815587, Final residual = 9.29878e-06, No Iterations 35
DICPCG:  Solving for p, Initial residual = 0.00119581, Final residual = 5.26999e-05, No Iterations 86
time step continuity errors : sum local = 3.00455e-08, global = 1.30893e-19, cumulative = 1.80399e-18
DICPCG:  Solving for p, Initial residual = 0.00113454, Final residual = 8.90051e-07, No Iterations 100
time step continuity errors : sum local = 5.07329e-10, global = -4.53712e-19, cumulative = 1.35027e-18
ExecutionTime = 7.6 s  ClockTime = 8 s

Time = 0.06125

Courant Number mean: 0.221814 max: 0.962848
smoothSolver:  Solving for Ux, Initial residual = 0.000276969, Final residual = 9.97997e-06, No Iterations 26
smoothSolver:  Solving for Uy, Initial residual = 0.000765329, Final residual = 9.92047e-06, No Iterations 34
DICPCG:  Solving for p, Initial residual = 0.00110376, Final residual = 5.08791e-05, No Iterations 37
time step continuity errors : sum local = 3.23055e-08, global = -9.7016e-20, cumulative = 1.25326e-18
DICPCG:  Solving for p, Initial residual = 0.00105538, Final residual = 9.51346e-07, No Iterations 107
time step continuity errors : sum local = 5.43382e-10, global = -2.58135e-20, cumulative = 1.22744e-18
ExecutionTime = 7.7 s  ClockTime = 8 s

Time = 0.0625

Courant Number mean: 0.222051 max: 0.962879
smoothSolver:  Solving for Ux, Initial residual = 0.000262266, Final residual = 9.41785e-06, No Iterations 26
smoothSolver:  Solving for Uy, Initial residual = 0.000715305, Final residual = 9.25346e-06, No Iterations 34
DICPCG:  Solving for p, Initial residual = 0.00114856, Final residual = 5.36218e-05, No Iterations 86
time step continuity errors : sum local = 3.06041e-08, global = 1.39543e-19, cumulative = 1.36699e-18
DICPCG:  Solving for p, Initial residual = 0.00109501, Final residual = 7.76105e-07, No Iterations 107
time step continuity errors : sum local = 4.41423e-10, global = 7.53133e-20, cumulative = 1.4423e-18
ExecutionTime = 7.83 s  ClockTime = 8 s

Time = 0.06375

Courant Number mean: 0.222272 max: 0.962908
smoothSolver:  Solving for Ux, Initial residual = 0.000244164, Final residual = 9.97857e-06, No Iterations 25
smoothSolver:  Solving for Uy, Initial residual = 0.000677321, Final residual = 9.95271e-06, No Iterations 33
DICPCG:  Solving for p, Initial residual = 0.00102674, Final residual = 4.44676e-05, No Iterations 77
time step continuity errors : sum local = 2.55134e-08, global = -1.71313e-19, cumulative = 1.27099e-18
DICPCG:  Solving for p, Initial residual = 0.0009747, Final residual = 8.60817e-07, No Iterations 105
time step continuity errors : sum local = 4.89918e-10, global = 1.6932e-20, cumulative = 1.28792e-18
ExecutionTime = 7.96 s  ClockTime = 8 s

Time = 0.065

Courant Number mean: 0.22248 max: 0.962935
smoothSolver:  Solving for Ux, Initial residual = 0.000229666, Final residual = 9.40186e-06, No Iterations 25
smoothSolver:  Solving for Uy, Initial residual = 0.000631028, Final residual = 9.29347e-06, No Iterations 33
DICPCG:  Solving for p, Initial residual = 0.000870134, Final residual = 3.00057e-05, No Iterations 44
time step continuity errors : sum local = 2.00304e-08, global = 1.82128e-19, cumulative = 1.47005e-18
DICPCG:  Solving for p, Initial residual = 0.000827175, Final residual = 7.96827e-07, No Iterations 106
time step continuity errors : sum local = 4.55784e-10, global = -2.28976e-20, cumulative = 1.44715e-18
ExecutionTime = 8.07 s  ClockTime = 9 s

Time = 0.06625

Courant Number mean: 0.222675 max: 0.962959
smoothSolver:  Solving for Ux, Initial residual = 0.000213105, Final residual = 9.88122e-06, No Iterations 24
smoothSolver:  Solving for Uy, Initial residual = 0.000604068, Final residual = 8.84807e-06, No Iterations 33
DICPCG:  Solving for p, Initial residual = 0.000989061, Final residual = 4.89965e-05, No Iterations 87
time step continuity errors : sum local = 2.79472e-08, global = -7.57685e-20, cumulative = 1.37138e-18
DICPCG:  Solving for p, Initial residual = 0.000944055, Final residual = 7.78322e-07, No Iterations 106
time step continuity errors : sum local = 4.43753e-10, global = 6.35682e-20, cumulative = 1.43495e-18
ExecutionTime = 8.19 s  ClockTime = 9 s

Time = 0.0675

Courant Number mean: 0.222857 max: 0.962983
smoothSolver:  Solving for Ux, Initial residual = 0.000204381, Final residual = 9.48211e-06, No Iterations 24
smoothSolver:  Solving for Uy, Initial residual = 0.000556219, Final residual = 9.261e-06, No Iterations 32
DICPCG:  Solving for p, Initial residual = 0.000891212, Final residual = 3.92996e-05, No Iterations 88
time step continuity errors : sum local = 2.24886e-08, global = 9.7785e-21, cumulative = 1.44473e-18
DICPCG:  Solving for p, Initial residual = 0.000851711, Final residual = 9.57394e-07, No Iterations 105
time step continuity errors : sum local = 5.45329e-10, global = 2.20212e-19, cumulative = 1.66494e-18
ExecutionTime = 8.31 s  ClockTime = 9 s

Time = 0.06875

Courant Number mean: 0.223027 max: 0.963006
smoothSolver:  Solving for Ux, Initial residual = 0.000190146, Final residual = 8.84842e-06, No Iterations 24
smoothSolver:  Solving for Uy, Initial residual = 0.000523416, Final residual = 9.95352e-06, No Iterations 31
DICPCG:  Solving for p, Initial residual = 0.000805732, Final residual = 3.42839e-05, No Iterations 75
time step continuity errors : sum local = 1.95628e-08, global = -1.50958e-19, cumulative = 1.51398e-18
DICPCG:  Solving for p, Initial residual = 0.000768377, Final residual = 9.23118e-07, No Iterations 106
time step continuity errors : sum local = 5.2627e-10, global = -4.09703e-19, cumulative = 1.10428e-18
ExecutionTime = 8.43 s  ClockTime = 9 s

Time = 0.07

Courant Number mean: 0.223187 max: 0.963024
smoothSolver:  Solving for Ux, Initial residual = 0.000178878, Final residual = 9.47478e-06, No Iterations 23
smoothSolver:  Solving for Uy, Initial residual = 0.000490847, Final residual = 9.33819e-06, No Iterations 31
DICPCG:  Solving for p, Initial residual = 0.000740751, Final residual = 3.21437e-05, No Iterations 43
time step continuity errors : sum local = 2.005e-08, global = 1.87196e-19, cumulative = 1.29148e-18
DICPCG:  Solving for p, Initial residual = 0.000709891, Final residual = 9.0568e-07, No Iterations 106
time step continuity errors : sum local = 5.15737e-10, global = 3.17322e-20, cumulative = 1.32321e-18
ExecutionTime = 8.54 s  ClockTime = 9 s

Time = 0.07125

Courant Number mean: 0.223337 max: 0.963044
smoothSolver:  Solving for Ux, Initial residual = 0.000165995, Final residual = 9.97687e-06, No Iterations 22
smoothSolver:  Solving for Uy, Initial residual = 0.000468024, Final residual = 8.85976e-06, No Iterations 31
DICPCG:  Solving for p, Initial residual = 0.00074716, Final residual = 3.5901e-05, No Iterations 75
time step continuity errors : sum local = 2.04419e-08, global = -1.68197e-19, cumulative = 1.15501e-18
DICPCG:  Solving for p, Initial residual = 0.000716275, Final residual = 7.37188e-07, No Iterations 105
time step continuity errors : sum local = 4.20207e-10, global = 1.34418e-19, cumulative = 1.28943e-18
ExecutionTime = 8.65 s  ClockTime = 9 s

Time = 0.0725

Courant Number mean: 0.223477 max: 0.963061
smoothSolver:  Solving for Ux, Initial residual = 0.000159453, Final residual = 9.56824e-06, No Iterations 22
smoothSolver:  Solving for Uy, Initial residual = 0.000433296, Final residual = 9.32294e-06, No Iterations 30
DICPCG:  Solving for p, Initial residual = 0.00070931, Final residual = 3.50019e-05, No Iterations 86
time step continuity errors : sum local = 1.99448e-08, global = 3.6952e-20, cumulative = 1.32638e-18
DICPCG:  Solving for p, Initial residual = 0.000680897, Final residual = 9.52044e-07, No Iterations 105
time step continuity errors : sum local = 5.41838e-10, global = 3.0339e-19, cumulative = 1.62977e-18
ExecutionTime = 8.78 s  ClockTime = 9 s

Time = 0.07375

Courant Number mean: 0.223609 max: 0.963077
smoothSolver:  Solving for Ux, Initial residual = 0.000148248, Final residual = 8.92998e-06, No Iterations 22
smoothSolver:  Solving for Uy, Initial residual = 0.000407624, Final residual = 9.99888e-06, No Iterations 29
DICPCG:  Solving for p, Initial residual = 0.000612446, Final residual = 2.23618e-05, No Iterations 73
time step continuity errors : sum local = 1.27966e-08, global = 1.99473e-19, cumulative = 1.82924e-18
DICPCG:  Solving for p, Initial residual = 0.000583833, Final residual = 8.66805e-07, No Iterations 103
time step continuity errors : sum local = 4.94411e-10, global = -1.05488e-19, cumulative = 1.72376e-18
ExecutionTime = 8.89 s  ClockTime = 9 s

Time = 0.075

Courant Number mean: 0.223732 max: 0.963092
smoothSolver:  Solving for Ux, Initial residual = 0.000139768, Final residual = 9.57172e-06, No Iterations 21
smoothSolver:  Solving for Uy, Initial residual = 0.000382238, Final residual = 9.38743e-06, No Iterations 29
DICPCG:  Solving for p, Initial residual = 0.000556499, Final residual = 2.51924e-05, No Iterations 43
time step continuity errors : sum local = 1.46584e-08, global = 3.48637e-20, cumulative = 1.75862e-18
DICPCG:  Solving for p, Initial residual = 0.000536069, Final residual = 7.36515e-07, No Iterations 72
time step continuity errors : sum local = 4.68493e-10, global = -1.48011e-19, cumulative = 1.61061e-18
ExecutionTime = 9.15 s  ClockTime = 10 s

Time = 0.07625

Courant Number mean: 0.223847 max: 0.963106
smoothSolver:  Solving for Ux, Initial residual = 0.000131395, Final residual = 8.99906e-06, No Iterations 21
smoothSolver:  Solving for Uy, Initial residual = 0.000359118, Final residual = 8.81961e-06, No Iterations 29
DICPCG:  Solving for p, Initial residual = 0.000522101, Final residual = 2.02531e-05, No Iterations 43
time step continuity errors : sum local = 1.22156e-08, global = 3.23048e-19, cumulative = 1.93366e-18
DICPCG:  Solving for p, Initial residual = 0.000501074, Final residual = 9.24807e-07, No Iterations 103
time step continuity errors : sum local = 5.27224e-10, global = -2.05701e-19, cumulative = 1.72796e-18
ExecutionTime = 9.25 s  ClockTime = 10 s

Time = 0.0775

Courant Number mean: 0.223956 max: 0.963119
smoothSolver:  Solving for Ux, Initial residual = 0.000122667, Final residual = 9.5499e-06, No Iterations 20
smoothSolver:  Solving for Uy, Initial residual = 0.00034099, Final residual = 9.4895e-06, No Iterations 28
DICPCG:  Solving for p, Initial residual = 0.000527292, Final residual = 2.49875e-05, No Iterations 74
time step continuity errors : sum local = 1.42168e-08, global = -2.01226e-19, cumulative = 1.52673e-18
DICPCG:  Solving for p, Initial residual = 0.000509116, Final residual = 7.79905e-07, No Iterations 92
time step continuity errors : sum local = 4.47483e-10, global = -1.19826e-19, cumulative = 1.4069e-18
ExecutionTime = 9.36 s  ClockTime = 10 s

Time = 0.07875

Courant Number mean: 0.224057 max: 0.963131
smoothSolver:  Solving for Ux, Initial residual = 0.000117096, Final residual = 9.10374e-06, No Iterations 20
smoothSolver:  Solving for Uy, Initial residual = 0.000317984, Final residual = 8.85015e-06, No Iterations 28
DICPCG:  Solving for p, Initial residual = 0.000527777, Final residual = 2.50573e-05, No Iterations 43
time step continuity errors : sum local = 1.64352e-08, global = 2.25646e-19, cumulative = 1.63255e-18
DICPCG:  Solving for p, Initial residual = 0.000507061, Final residual = 8.61758e-07, No Iterations 104
time step continuity errors : sum local = 4.91245e-10, global = -1.74772e-19, cumulative = 1.45778e-18
ExecutionTime = 9.46 s  ClockTime = 10 s

Time = 0.08

Courant Number mean: 0.224152 max: 0.963143
smoothSolver:  Solving for Ux, Initial residual = 0.000108107, Final residual = 9.50363e-06, No Iterations 19
smoothSolver:  Solving for Uy, Initial residual = 0.000306724, Final residual = 9.64247e-06, No Iterations 27
DICPCG:  Solving for p, Initial residual = 0.000560524, Final residual = 2.48266e-05, No Iterations 75
time step continuity errors : sum local = 1.41323e-08, global = -4.75853e-20, cumulative = 1.41019e-18
DICPCG:  Solving for p, Initial residual = 0.000536717, Final residual = 7.93803e-07, No Iterations 105
time step continuity errors : sum local = 4.52088e-10, global = 1.28097e-19, cumulative = 1.53829e-18
ExecutionTime = 9.57 s  ClockTime = 10 s

Time = 0.08125

Courant Number mean: 0.224241 max: 0.963153
smoothSolver:  Solving for Ux, Initial residual = 0.000105065, Final residual = 9.23259e-06, No Iterations 19
smoothSolver:  Solving for Uy, Initial residual = 0.000281907, Final residual = 8.85448e-06, No Iterations 27
DICPCG:  Solving for p, Initial residual = 0.000514526, Final residual = 2.4354e-05, No Iterations 87
time step continuity errors : sum local = 1.38917e-08, global = -3.44881e-19, cumulative = 1.19341e-18
DICPCG:  Solving for p, Initial residual = 0.000497117, Final residual = 9.8107e-07, No Iterations 104
time step continuity errors : sum local = 5.58861e-10, global = -1.81319e-19, cumulative = 1.01209e-18
ExecutionTime = 9.68 s  ClockTime = 10 s

Time = 0.0825

Courant Number mean: 0.224325 max: 0.963164
smoothSolver:  Solving for Ux, Initial residual = 9.72894e-05, Final residual = 9.76825e-06, No Iterations 18
smoothSolver:  Solving for Uy, Initial residual = 0.000265172, Final residual = 9.53087e-06, No Iterations 26
DICPCG:  Solving for p, Initial residual = 0.000470023, Final residual = 2.06761e-05, No Iterations 74
time step continuity errors : sum local = 1.18618e-08, global = -4.70094e-20, cumulative = 9.6508e-19
DICPCG:  Solving for p, Initial residual = 0.000454888, Final residual = 9.23042e-07, No Iterations 103
time step continuity errors : sum local = 5.26473e-10, global = -1.57842e-19, cumulative = 8.07238e-19
ExecutionTime = 9.8 s  ClockTime = 10 s

Time = 0.08375

Courant Number mean: 0.224403 max: 0.963172
smoothSolver:  Solving for Ux, Initial residual = 9.20531e-05, Final residual = 9.24522e-06, No Iterations 18
smoothSolver:  Solving for Uy, Initial residual = 0.000248791, Final residual = 8.94034e-06, No Iterations 26
DICPCG:  Solving for p, Initial residual = 0.000465879, Final residual = 1.9983e-05, No Iterations 43
time step continuity errors : sum local = 1.20541e-08, global = -1.61526e-19, cumulative = 6.45712e-19
DICPCG:  Solving for p, Initial residual = 0.000451716, Final residual = 9.7571e-07, No Iterations 62
time step continuity errors : sum local = 6.86604e-10, global = 7.77324e-20, cumulative = 7.23444e-19
ExecutionTime = 9.88 s  ClockTime = 10 s

Time = 0.085

Courant Number mean: 0.224476 max: 0.96318
smoothSolver:  Solving for Ux, Initial residual = 8.68174e-05, Final residual = 9.91219e-06, No Iterations 17
smoothSolver:  Solving for Uy, Initial residual = 0.000233903, Final residual = 9.5566e-06, No Iterations 25
DICPCG:  Solving for p, Initial residual = 0.00041406, Final residual = 1.74655e-05, No Iterations 43
time step continuity errors : sum local = 1.12489e-08, global = -4.05871e-20, cumulative = 6.82857e-19
DICPCG:  Solving for p, Initial residual = 0.000400168, Final residual = 9.36093e-07, No Iterations 102
time step continuity errors : sum local = 5.32975e-10, global = 3.30448e-19, cumulative = 1.01331e-18
ExecutionTime = 9.98 s  ClockTime = 11 s

Time = 0.08625

Courant Number mean: 0.224545 max: 0.963189
smoothSolver:  Solving for Ux, Initial residual = 8.06555e-05, Final residual = 9.17382e-06, No Iterations 17
smoothSolver:  Solving for Uy, Initial residual = 0.000225799, Final residual = 9.16272e-06, No Iterations 25
DICPCG:  Solving for p, Initial residual = 0.000438181, Final residual = 2.10481e-05, No Iterations 76
time step continuity errors : sum local = 1.20076e-08, global = -1.13416e-19, cumulative = 8.99889e-19
DICPCG:  Solving for p, Initial residual = 0.000426257, Final residual = 9.92186e-07, No Iterations 103
time step continuity errors : sum local = 5.65162e-10, global = -2.44358e-19, cumulative = 6.55532e-19
ExecutionTime = 10.09 s  ClockTime = 11 s

Time = 0.0875

Courant Number mean: 0.22461 max: 0.963196
smoothSolver:  Solving for Ux, Initial residual = 7.7987e-05, Final residual = 8.8543e-06, No Iterations 17
smoothSolver:  Solving for Uy, Initial residual = 0.000208921, Final residual = 9.62709e-06, No Iterations 24
DICPCG:  Solving for p, Initial residual = 0.000406283, Final residual = 1.61263e-05, No Iterations 86
time step continuity errors : sum local = 9.19028e-09, global = -2.7199e-19, cumulative = 3.83541e-19
DICPCG:  Solving for p, Initial residual = 0.000392051, Final residual = 9.10082e-07, No Iterations 98
time step continuity errors : sum local = 5.18022e-10, global = -1.84678e-19, cumulative = 1.98863e-19
ExecutionTime = 10.2 s  ClockTime = 11 s

Time = 0.08875

Courant Number mean: 0.22467 max: 0.963203
smoothSolver:  Solving for Ux, Initial residual = 7.26008e-05, Final residual = 9.41595e-06, No Iterations 16
smoothSolver:  Solving for Uy, Initial residual = 0.000196823, Final residual = 9.11627e-06, No Iterations 24
DICPCG:  Solving for p, Initial residual = 0.000365148, Final residual = 1.80179e-05, No Iterations 73
time step continuity errors : sum local = 1.04781e-08, global = -2.40893e-19, cumulative = -4.203e-20
DICPCG:  Solving for p, Initial residual = 0.0003539, Final residual = 9.42983e-07, No Iterations 101
time step continuity errors : sum local = 5.36971e-10, global = -2.37771e-19, cumulative = -2.79801e-19
ExecutionTime = 10.3 s  ClockTime = 11 s

Time = 0.09

Courant Number mean: 0.224727 max: 0.96321
smoothSolver:  Solving for Ux, Initial residual = 6.91624e-05, Final residual = 8.96541e-06, No Iterations 16
smoothSolver:  Solving for Uy, Initial residual = 0.00018384, Final residual = 9.68046e-06, No Iterations 23
DICPCG:  Solving for p, Initial residual = 0.000362553, Final residual = 1.34609e-05, No Iterations 44
time step continuity errors : sum local = 9.71095e-09, global = -3.45736e-22, cumulative = -2.80147e-19
DICPCG:  Solving for p, Initial residual = 0.000354153, Final residual = 9.64669e-07, No Iterations 100
time step continuity errors : sum local = 5.49245e-10, global = -2.09732e-19, cumulative = -4.89879e-19
ExecutionTime = 10.39 s  ClockTime = 11 s

Time = 0.09125

Courant Number mean: 0.22478 max: 0.963216
smoothSolver:  Solving for Ux, Initial residual = 6.72844e-05, Final residual = 9.83939e-06, No Iterations 15
smoothSolver:  Solving for Uy, Initial residual = 0.000170936, Final residual = 8.9321e-06, No Iterations 23
DICPCG:  Solving for p, Initial residual = 0.00042069, Final residual = 1.85146e-05, No Iterations 87
time step continuity errors : sum local = 1.05651e-08, global = -9.32213e-20, cumulative = -5.831e-19
DICPCG:  Solving for p, Initial residual = 0.000412101, Final residual = 7.67433e-07, No Iterations 104
time step continuity errors : sum local = 4.37387e-10, global = -2.77974e-19, cumulative = -8.61074e-19
ExecutionTime = 10.51 s  ClockTime = 11 s

Time = 0.0925

Courant Number mean: 0.22483 max: 0.963222
smoothSolver:  Solving for Ux, Initial residual = 6.12799e-05, Final residual = 8.96354e-06, No Iterations 15
smoothSolver:  Solving for Uy, Initial residual = 0.000167348, Final residual = 9.94756e-06, No Iterations 22
DICPCG:  Solving for p, Initial residual = 0.000365484, Final residual = 1.79155e-05, No Iterations 78
time step continuity errors : sum local = 1.03064e-08, global = 5.6162e-20, cumulative = -8.04912e-19
DICPCG:  Solving for p, Initial residual = 0.000353147, Final residual = 6.75342e-07, No Iterations 103
time step continuity errors : sum local = 3.84437e-10, global = 2.29891e-19, cumulative = -5.75022e-19
ExecutionTime = 10.62 s  ClockTime = 11 s

Time = 0.09375

Courant Number mean: 0.224876 max: 0.963227
smoothSolver:  Solving for Ux, Initial residual = 5.82962e-05, Final residual = 9.73309e-06, No Iterations 14
smoothSolver:  Solving for Uy, Initial residual = 0.000154975, Final residual = 9.23925e-06, No Iterations 22
DICPCG:  Solving for p, Initial residual = 0.000365029, Final residual = 1.68616e-05, No Iterations 42
time step continuity errors : sum local = 1.0954e-08, global = 1.97579e-19, cumulative = -3.77442e-19
DICPCG:  Solving for p, Initial residual = 0.000358683, Final residual = 9.318e-07, No Iterations 100
time step continuity errors : sum local = 5.30997e-10, global = 1.35303e-19, cumulative = -2.42139e-19
ExecutionTime = 10.71 s  ClockTime = 11 s

Time = 0.095

Courant Number mean: 0.22492 max: 0.963232
smoothSolver:  Solving for Ux, Initial residual = 5.64558e-05, Final residual = 9.39612e-06, No Iterations 14
smoothSolver:  Solving for Uy, Initial residual = 0.00014424, Final residual = 9.72965e-06, No Iterations 21
DICPCG:  Solving for p, Initial residual = 0.000345655, Final residual = 1.32506e-05, No Iterations 74
time step continuity errors : sum local = 7.56195e-09, global = -2.04747e-19, cumulative = -4.46886e-19
DICPCG:  Solving for p, Initial residual = 0.00033522, Final residual = 8.50982e-07, No Iterations 102
time step continuity errors : sum local = 4.84625e-10, global = -1.26085e-20, cumulative = -4.59495e-19
ExecutionTime = 10.81 s  ClockTime = 11 s

Time = 0.09625

Courant Number mean: 0.224961 max: 0.963237
smoothSolver:  Solving for Ux, Initial residual = 5.1712e-05, Final residual = 9.80505e-06, No Iterations 13
smoothSolver:  Solving for Uy, Initial residual = 0.000139443, Final residual = 9.44902e-06, No Iterations 21
DICPCG:  Solving for p, Initial residual = 0.000344056, Final residual = 1.53801e-05, No Iterations 86
time step continuity errors : sum local = 8.76799e-09, global = -1.84594e-19, cumulative = -6.44089e-19
DICPCG:  Solving for p, Initial residual = 0.000337139, Final residual = 7.50524e-07, No Iterations 102
time step continuity errors : sum local = 4.27552e-10, global = -2.65974e-19, cumulative = -9.10063e-19
ExecutionTime = 10.93 s  ClockTime = 11 s

Time = 0.0975

Courant Number mean: 0.225 max: 0.963242
smoothSolver:  Solving for Ux, Initial residual = 4.95878e-05, Final residual = 9.41307e-06, No Iterations 13
smoothSolver:  Solving for Uy, Initial residual = 0.000130522, Final residual = 8.82381e-06, No Iterations 21
DICPCG:  Solving for p, Initial residual = 0.000321596, Final residual = 1.57646e-05, No Iterations 29
time step continuity errors : sum local = 1.01499e-08, global = -8.21025e-21, cumulative = -9.18273e-19
DICPCG:  Solving for p, Initial residual = 0.000317024, Final residual = 9.19478e-07, No Iterations 94
time step continuity errors : sum local = 5.24205e-10, global = -1.92493e-19, cumulative = -1.11077e-18
ExecutionTime = 11.01 s  ClockTime = 12 s

Time = 0.09875

Courant Number mean: 0.225036 max: 0.963246
smoothSolver:  Solving for Ux, Initial residual = 4.80483e-05, Final residual = 9.0836e-06, No Iterations 13
smoothSolver:  Solving for Uy, Initial residual = 0.000121414, Final residual = 9.27563e-06, No Iterations 20
DICPCG:  Solving for p, Initial residual = 0.000329254, Final residual = 1.5541e-05, No Iterations 86
time step continuity errors : sum local = 8.85997e-09, global = 2.95362e-19, cumulative = -8.15404e-19
DICPCG:  Solving for p, Initial residual = 0.000321375, Final residual = 8.48935e-07, No Iterations 102
time step continuity errors : sum local = 4.83119e-10, global = -2.60268e-19, cumulative = -1.07567e-18
ExecutionTime = 11.12 s  ClockTime = 12 s

Time = 0.1

Courant Number mean: 0.22507 max: 0.963249
smoothSolver:  Solving for Ux, Initial residual = 4.39439e-05, Final residual = 9.4617e-06, No Iterations 12
smoothSolver:  Solving for Uy, Initial residual = 0.000118314, Final residual = 9.08184e-06, No Iterations 20
DICPCG:  Solving for p, Initial residual = 0.000325507, Final residual = 1.62598e-05, No Iterations 84
time step continuity errors : sum local = 9.28521e-09, global = 2.18152e-19, cumulative = -8.5752e-19
DICPCG:  Solving for p, Initial residual = 0.000318121, Final residual = 6.33271e-07, No Iterations 102
time step continuity errors : sum local = 3.60856e-10, global = 9.24555e-20, cumulative = -7.65064e-19
ExecutionTime = 11.39 s  ClockTime = 12 s

Time = 0.10125

Courant Number mean: 0.225102 max: 0.963253
smoothSolver:  Solving for Ux, Initial residual = 4.23286e-05, Final residual = 9.10439e-06, No Iterations 12
smoothSolver:  Solving for Uy, Initial residual = 0.000110176, Final residual = 9.58804e-06, No Iterations 19
DICPCG:  Solving for p, Initial residual = 0.000300113, Final residual = 1.21826e-05, No Iterations 43
time step continuity errors : sum local = 7.78833e-09, global = -4.42994e-19, cumulative = -1.20806e-18
DICPCG:  Solving for p, Initial residual = 0.000294075, Final residual = 9.56808e-07, No Iterations 100
time step continuity errors : sum local = 5.46407e-10, global = -2.80315e-19, cumulative = -1.48837e-18
ExecutionTime = 11.48 s  ClockTime = 12 s

Time = 0.1025

Courant Number mean: 0.225131 max: 0.963256
smoothSolver:  Solving for Ux, Initial residual = 4.05816e-05, Final residual = 9.92233e-06, No Iterations 11
smoothSolver:  Solving for Uy, Initial residual = 0.000103276, Final residual = 8.96597e-06, No Iterations 19
DICPCG:  Solving for p, Initial residual = 0.00033149, Final residual = 1.62088e-05, No Iterations 72
time step continuity errors : sum local = 9.25045e-09, global = 2.36929e-19, cumulative = -1.25144e-18
DICPCG:  Solving for p, Initial residual = 0.000324998, Final residual = 9.18371e-07, No Iterations 100
time step continuity errors : sum local = 5.2362e-10, global = 4.16831e-19, cumulative = -8.34614e-19
ExecutionTime = 11.58 s  ClockTime = 12 s

Time = 0.10375

Courant Number mean: 0.225159 max: 0.96326
smoothSolver:  Solving for Ux, Initial residual = 3.78301e-05, Final residual = 9.23794e-06, No Iterations 11
smoothSolver:  Solving for Uy, Initial residual = 9.94419e-05, Final residual = 9.81981e-06, No Iterations 18
DICPCG:  Solving for p, Initial residual = 0.000295136, Final residual = 1.41085e-05, No Iterations 86
time step continuity errors : sum local = 8.05559e-09, global = -4.94531e-20, cumulative = -8.84067e-19
DICPCG:  Solving for p, Initial residual = 0.000288975, Final residual = 9.54146e-07, No Iterations 100
time step continuity errors : sum local = 5.43952e-10, global = -4.04585e-20, cumulative = -9.24526e-19
ExecutionTime = 11.68 s  ClockTime = 12 s

Time = 0.105

Courant Number mean: 0.225186 max: 0.963262
smoothSolver:  Solving for Ux, Initial residual = 3.60865e-05, Final residual = 8.8286e-06, No Iterations 11
smoothSolver:  Solving for Uy, Initial residual = 9.37056e-05, Final residual = 9.26973e-06, No Iterations 18
DICPCG:  Solving for p, Initial residual = 0.000273274, Final residual = 1.33474e-05, No Iterations 30
time step continuity errors : sum local = 9.08584e-09, global = 1.42579e-19, cumulative = -7.81947e-19
DICPCG:  Solving for p, Initial residual = 0.000269084, Final residual = 8.53192e-07, No Iterations 95
time step continuity errors : sum local = 4.86153e-10, global = -5.47626e-20, cumulative = -8.3671e-19
ExecutionTime = 11.76 s  ClockTime = 12 s

Time = 0.10625

Courant Number mean: 0.22521 max: 0.963265
smoothSolver:  Solving for Ux, Initial residual = 3.58435e-05, Final residual = 9.89504e-06, No Iterations 10
smoothSolver:  Solving for Uy, Initial residual = 8.68899e-05, Final residual = 9.62456e-06, No Iterations 17
DICPCG:  Solving for p, Initial residual = 0.000331198, Final residual = 1.5329e-05, No Iterations 85
time step continuity errors : sum local = 8.73035e-09, global = 3.49608e-20, cumulative = -8.01749e-19
DICPCG:  Solving for p, Initial residual = 0.000323983, Final residual = 9.29811e-07, No Iterations 99
time step continuity errors : sum local = 5.29787e-10, global = 1.95559e-20, cumulative = -7.82193e-19
ExecutionTime = 11.87 s  ClockTime = 12 s

Time = 0.1075

Courant Number mean: 0.225233 max: 0.963268
smoothSolver:  Solving for Ux, Initial residual = 3.24558e-05, Final residual = 8.96199e-06, No Iterations 10
smoothSolver:  Solving for Uy, Initial residual = 8.59785e-05, Final residual = 9.594e-06, No Iterations 17
DICPCG:  Solving for p, Initial residual = 0.000299625, Final residual = 1.40438e-05, No Iterations 75
time step continuity errors : sum local = 8.06814e-09, global = -5.05679e-22, cumulative = -7.82699e-19
DICPCG:  Solving for p, Initial residual = 0.000292985, Final residual = 7.74064e-07, No Iterations 101
time step continuity errors : sum local = 4.41726e-10, global = 2.56621e-20, cumulative = -7.57036e-19
ExecutionTime = 11.96 s  ClockTime = 13 s

Time = 0.10875

Courant Number mean: 0.225255 max: 0.96327
smoothSolver:  Solving for Ux, Initial residual = 3.13093e-05, Final residual = 9.83837e-06, No Iterations 9
smoothSolver:  Solving for Uy, Initial residual = 7.97761e-05, Final residual = 8.91272e-06, No Iterations 17
DICPCG:  Solving for p, Initial residual = 0.000325954, Final residual = 1.6112e-05, No Iterations 40
time step continuity errors : sum local = 1.08065e-08, global = 8.29682e-20, cumulative = -6.74068e-19
DICPCG:  Solving for p, Initial residual = 0.000324465, Final residual = 9.28721e-07, No Iterations 94
time step continuity errors : sum local = 5.29129e-10, global = 7.75144e-20, cumulative = -5.96554e-19
ExecutionTime = 12.04 s  ClockTime = 13 s

Time = 0.11

Courant Number mean: 0.225275 max: 0.963272
smoothSolver:  Solving for Ux, Initial residual = 3.16092e-05, Final residual = 9.86222e-06, No Iterations 9
smoothSolver:  Solving for Uy, Initial residual = 7.37469e-05, Final residual = 9.19243e-06, No Iterations 16
DICPCG:  Solving for p, Initial residual = 0.000332289, Final residual = 1.45341e-05, No Iterations 86
time step continuity errors : sum local = 8.29291e-09, global = -1.9655e-19, cumulative = -7.93103e-19
DICPCG:  Solving for p, Initial residual = 0.0003254, Final residual = 9.36349e-07, No Iterations 99
time step continuity errors : sum local = 5.33322e-10, global = 1.09041e-19, cumulative = -6.84063e-19
ExecutionTime = 12.14 s  ClockTime = 13 s

Time = 0.11125

Courant Number mean: 0.225294 max: 0.963275
smoothSolver:  Solving for Ux, Initial residual = 2.81189e-05, Final residual = 9.98964e-06, No Iterations 8
smoothSolver:  Solving for Uy, Initial residual = 7.39013e-05, Final residual = 9.33824e-06, No Iterations 16
DICPCG:  Solving for p, Initial residual = 0.000323973, Final residual = 1.38478e-05, No Iterations 87
time step continuity errors : sum local = 7.89e-09, global = 3.05531e-19, cumulative = -3.78532e-19
DICPCG:  Solving for p, Initial residual = 0.00031972, Final residual = 8.87394e-07, No Iterations 101
time step continuity errors : sum local = 5.0567e-10, global = -3.06389e-19, cumulative = -6.84921e-19
ExecutionTime = 12.24 s  ClockTime = 13 s

Time = 0.1125

Courant Number mean: 0.225312 max: 0.963277
smoothSolver:  Solving for Ux, Initial residual = 2.7518e-05, Final residual = 9.7554e-06, No Iterations 8
smoothSolver:  Solving for Uy, Initial residual = 6.82359e-05, Final residual = 9.76471e-06, No Iterations 15
DICPCG:  Solving for p, Initial residual = 0.000287872, Final residual = 1.31812e-05, No Iterations 41
time step continuity errors : sum local = 8.44782e-09, global = 1.12258e-19, cumulative = -5.72663e-19
DICPCG:  Solving for p, Initial residual = 0.000286898, Final residual = 9.74168e-07, No Iterations 100
time step continuity errors : sum local = 5.54543e-10, global = 1.64294e-19, cumulative = -4.0837e-19
ExecutionTime = 12.32 s  ClockTime = 13 s

Time = 0.11375

Courant Number mean: 0.225329 max: 0.963278
smoothSolver:  Solving for Ux, Initial residual = 2.68941e-05, Final residual = 9.56037e-06, No Iterations 8
smoothSolver:  Solving for Uy, Initial residual = 6.39188e-05, Final residual = 9.11132e-06, No Iterations 15
DICPCG:  Solving for p, Initial residual = 0.000292408, Final residual = 1.44222e-05, No Iterations 85
time step continuity errors : sum local = 8.21982e-09, global = 7.26555e-20, cumulative = -3.35714e-19
DICPCG:  Solving for p, Initial residual = 0.000286102, Final residual = 9.64506e-07, No Iterations 101
time step continuity errors : sum local = 5.49692e-10, global = 3.89717e-19, cumulative = 5.40028e-20
ExecutionTime = 12.42 s  ClockTime = 13 s

Time = 0.115

Courant Number mean: 0.225344 max: 0.96328
smoothSolver:  Solving for Ux, Initial residual = 2.45659e-05, Final residual = 9.94836e-06, No Iterations 7
smoothSolver:  Solving for Uy, Initial residual = 6.28276e-05, Final residual = 9.03261e-06, No Iterations 15
DICPCG:  Solving for p, Initial residual = 0.000306054, Final residual = 1.12086e-05, No Iterations 83
time step continuity errors : sum local = 6.38904e-09, global = 1.04043e-19, cumulative = 1.58046e-19
DICPCG:  Solving for p, Initial residual = 0.000301888, Final residual = 8.53284e-07, No Iterations 97
time step continuity errors : sum local = 4.85726e-10, global = -1.79452e-19, cumulative = -2.14057e-20
ExecutionTime = 12.51 s  ClockTime = 13 s

Time = 0.11625

Courant Number mean: 0.225359 max: 0.963282
smoothSolver:  Solving for Ux, Initial residual = 2.40951e-05, Final residual = 9.69776e-06, No Iterations 7
smoothSolver:  Solving for Uy, Initial residual = 5.89406e-05, Final residual = 9.56858e-06, No Iterations 14
DICPCG:  Solving for p, Initial residual = 0.000264325, Final residual = 1.06018e-05, No Iterations 43
time step continuity errors : sum local = 7.43915e-09, global = 2.99839e-19, cumulative = 2.78433e-19
DICPCG:  Solving for p, Initial residual = 0.000265538, Final residual = 7.06517e-07, No Iterations 100
time step continuity errors : sum local = 4.02304e-10, global = -5.29968e-20, cumulative = 2.25436e-19
ExecutionTime = 12.59 s  ClockTime = 13 s

Time = 0.1175

Courant Number mean: 0.225373 max: 0.963283
smoothSolver:  Solving for Ux, Initial residual = 2.44062e-05, Final residual = 9.78465e-06, No Iterations 7
smoothSolver:  Solving for Uy, Initial residual = 5.51511e-05, Final residual = 9.97936e-06, No Iterations 13
DICPCG:  Solving for p, Initial residual = 0.000278127, Final residual = 1.28612e-05, No Iterations 87
time step continuity errors : sum local = 7.33331e-09, global = 2.69985e-19, cumulative = 4.95422e-19
DICPCG:  Solving for p, Initial residual = 0.000273542, Final residual = 9.11867e-07, No Iterations 100
time step continuity errors : sum local = 5.19049e-10, global = -6.0116e-20, cumulative = 4.35306e-19
ExecutionTime = 12.68 s  ClockTime = 13 s

Time = 0.11875

Courant Number mean: 0.225386 max: 0.963285
smoothSolver:  Solving for Ux, Initial residual = 2.1636e-05, Final residual = 9.86946e-06, No Iterations 6
smoothSolver:  Solving for Uy, Initial residual = 5.5569e-05, Final residual = 8.97343e-06, No Iterations 14
DICPCG:  Solving for p, Initial residual = 0.000305986, Final residual = 1.36551e-05, No Iterations 73
time step continuity errors : sum local = 7.77148e-09, global = 2.60879e-19, cumulative = 6.96184e-19
DICPCG:  Solving for p, Initial residual = 0.000302018, Final residual = 9.82587e-07, No Iterations 87
time step continuity errors : sum local = 5.60215e-10, global = -2.6923e-19, cumulative = 4.26954e-19
ExecutionTime = 12.77 s  ClockTime = 13 s

Time = 0.12

Courant Number mean: 0.225398 max: 0.963286
smoothSolver:  Solving for Ux, Initial residual = 2.14232e-05, Final residual = 9.73254e-06, No Iterations 6
smoothSolver:  Solving for Uy, Initial residual = 5.12776e-05, Final residual = 9.37339e-06, No Iterations 13
DICPCG:  Solving for p, Initial residual = 0.000282834, Final residual = 1.35358e-05, No Iterations 41
time step continuity errors : sum local = 9.04986e-09, global = 1.80143e-20, cumulative = 4.44968e-19
DICPCG:  Solving for p, Initial residual = 0.000281683, Final residual = 8.28837e-07, No Iterations 100
time step continuity errors : sum local = 4.72234e-10, global = 2.73318e-19, cumulative = 7.18286e-19
ExecutionTime = 12.84 s  ClockTime = 13 s

Time = 0.12125

Courant Number mean: 0.225409 max: 0.963287
smoothSolver:  Solving for Ux, Initial residual = 2.17528e-05, Final residual = 9.87204e-06, No Iterations 6
smoothSolver:  Solving for Uy, Initial residual = 4.78973e-05, Final residual = 9.79751e-06, No Iterations 12
DICPCG:  Solving for p, Initial residual = 0.000283373, Final residual = 1.23019e-05, No Iterations 86
time step continuity errors : sum local = 7.01809e-09, global = 2.82322e-20, cumulative = 7.46518e-19
DICPCG:  Solving for p, Initial residual = 0.000276451, Final residual = 9.15416e-07, No Iterations 99
time step continuity errors : sum local = 5.22144e-10, global = 2.27343e-19, cumulative = 9.73862e-19
ExecutionTime = 12.94 s  ClockTime = 13 s

Time = 0.1225

Courant Number mean: 0.22542 max: 0.963288
smoothSolver:  Solving for Ux, Initial residual = 1.91772e-05, Final residual = 9.9409e-06, No Iterations 5
smoothSolver:  Solving for Uy, Initial residual = 4.82933e-05, Final residual = 8.85691e-06, No Iterations 13
DICPCG:  Solving for p, Initial residual = 0.000300941, Final residual = 1.3315e-05, No Iterations 73
time step continuity errors : sum local = 7.60219e-09, global = -1.51722e-19, cumulative = 8.2214e-19
DICPCG:  Solving for p, Initial residual = 0.000298269, Final residual = 9.92334e-07, No Iterations 99
time step continuity errors : sum local = 5.6534e-10, global = -3.88953e-19, cumulative = 4.33187e-19
ExecutionTime = 13.03 s  ClockTime = 14 s

Time = 0.12375

Courant Number mean: 0.22543 max: 0.96329
smoothSolver:  Solving for Ux, Initial residual = 1.91971e-05, Final residual = 9.86589e-06, No Iterations 5
smoothSolver:  Solving for Uy, Initial residual = 4.4801e-05, Final residual = 9.25312e-06, No Iterations 12
DICPCG:  Solving for p, Initial residual = 0.000273062, Final residual = 1.33359e-05, No Iterations 40
time step continuity errors : sum local = 9.03099e-09, global = 1.48674e-20, cumulative = 4.48054e-19
DICPCG:  Solving for p, Initial residual = 0.000273119, Final residual = 9.69249e-07, No Iterations 97
time step continuity errors : sum local = 5.53471e-10, global = 6.33637e-20, cumulative = 5.11418e-19
ExecutionTime = 13.1 s  ClockTime = 14 s

Time = 0.125

Courant Number mean: 0.225439 max: 0.96329
smoothSolver:  Solving for Ux, Initial residual = 1.97752e-05, Final residual = 8.93875e-06, No Iterations 6
smoothSolver:  Solving for Uy, Initial residual = 4.19238e-05, Final residual = 9.66225e-06, No Iterations 11
DICPCG:  Solving for p, Initial residual = 0.000243588, Final residual = 1.09357e-05, No Iterations 87
time step continuity errors : sum local = 6.23679e-09, global = 1.7144e-19, cumulative = 6.82858e-19
DICPCG:  Solving for p, Initial residual = 0.000236532, Final residual = 8.05956e-07, No Iterations 101
time step continuity errors : sum local = 4.59874e-10, global = -1.10305e-19, cumulative = 5.72553e-19
ExecutionTime = 13.36 s  ClockTime = 14 s

Time = 0.12625

Courant Number mean: 0.225448 max: 0.963291
smoothSolver:  Solving for Ux, Initial residual = 1.69463e-05, Final residual = 9.96447e-06, No Iterations 4
smoothSolver:  Solving for Uy, Initial residual = 4.2929e-05, Final residual = 8.9326e-06, No Iterations 12
DICPCG:  Solving for p, Initial residual = 0.000301504, Final residual = 1.33611e-05, No Iterations 72
time step continuity errors : sum local = 7.62549e-09, global = -7.98297e-20, cumulative = 4.92723e-19
DICPCG:  Solving for p, Initial residual = 0.000298756, Final residual = 7.51851e-07, No Iterations 101
time step continuity errors : sum local = 4.28221e-10, global = -2.42273e-19, cumulative = 2.5045e-19
ExecutionTime = 13.44 s  ClockTime = 14 s

Time = 0.1275

Courant Number mean: 0.225457 max: 0.963293
smoothSolver:  Solving for Ux, Initial residual = 1.73173e-05, Final residual = 8.85026e-06, No Iterations 5
smoothSolver:  Solving for Uy, Initial residual = 3.9572e-05, Final residual = 9.21388e-06, No Iterations 11
DICPCG:  Solving for p, Initial residual = 0.000223895, Final residual = 1.00522e-05, No Iterations 41
time step continuity errors : sum local = 6.66268e-09, global = 1.3898e-19, cumulative = 3.8943e-19
DICPCG:  Solving for p, Initial residual = 0.000222711, Final residual = 9.10283e-07, No Iterations 96
time step continuity errors : sum local = 5.18599e-10, global = 2.06981e-20, cumulative = 4.10128e-19
ExecutionTime = 13.52 s  ClockTime = 14 s

Time = 0.12875

Courant Number mean: 0.225465 max: 0.963293
smoothSolver:  Solving for Ux, Initial residual = 1.7086e-05, Final residual = 8.82314e-06, No Iterations 5
smoothSolver:  Solving for Uy, Initial residual = 3.72347e-05, Final residual = 9.85018e-06, No Iterations 10
DICPCG:  Solving for p, Initial residual = 0.000215497, Final residual = 9.94494e-06, No Iterations 85
time step continuity errors : sum local = 5.6687e-09, global = -7.0523e-20, cumulative = 3.39605e-19
DICPCG:  Solving for p, Initial residual = 0.000210505, Final residual = 7.04305e-07, No Iterations 97
time step continuity errors : sum local = 4.01239e-10, global = 6.55852e-20, cumulative = 4.0519e-19
ExecutionTime = 13.61 s  ClockTime = 14 s

Time = 0.13

Courant Number mean: 0.225472 max: 0.963294
smoothSolver:  Solving for Ux, Initial residual = 1.52224e-05, Final residual = 8.97709e-06, No Iterations 4
smoothSolver:  Solving for Uy, Initial residual = 3.74106e-05, Final residual = 8.86518e-06, No Iterations 11
DICPCG:  Solving for p, Initial residual = 0.000247209, Final residual = 1.21474e-05, No Iterations 73
time step continuity errors : sum local = 6.94926e-09, global = -9.63602e-20, cumulative = 3.0883e-19
DICPCG:  Solving for p, Initial residual = 0.000245867, Final residual = 8.29168e-07, No Iterations 98
time step continuity errors : sum local = 4.7208e-10, global = 1.80566e-19, cumulative = 4.89396e-19
ExecutionTime = 13.7 s  ClockTime = 14 s

Time = 0.13125

Courant Number mean: 0.225479 max: 0.963295
smoothSolver:  Solving for Ux, Initial residual = 1.53839e-05, Final residual = 8.96218e-06, No Iterations 4
smoothSolver:  Solving for Uy, Initial residual = 3.50114e-05, Final residual = 9.309e-06, No Iterations 10
DICPCG:  Solving for p, Initial residual = 0.000223816, Final residual = 1.04823e-05, No Iterations 40
time step continuity errors : sum local = 7.28142e-09, global = 1.60915e-19, cumulative = 6.50311e-19
DICPCG:  Solving for p, Initial residual = 0.000224304, Final residual = 8.51578e-07, No Iterations 94
time step continuity errors : sum local = 4.85556e-10, global = 4.04844e-20, cumulative = 6.90796e-19
ExecutionTime = 13.78 s  ClockTime = 14 s

Time = 0.1325

Courant Number mean: 0.225486 max: 0.963295
smoothSolver:  Solving for Ux, Initial residual = 1.60761e-05, Final residual = 9.36934e-06, No Iterations 4
smoothSolver:  Solving for Uy, Initial residual = 3.30207e-05, Final residual = 9.78256e-06, No Iterations 9
DICPCG:  Solving for p, Initial residual = 0.000227054, Final residual = 1.13477e-05, No Iterations 86
time step continuity errors : sum local = 6.47024e-09, global = -5.40989e-20, cumulative = 6.36697e-19
DICPCG:  Solving for p, Initial residual = 0.000221872, Final residual = 8.25113e-07, No Iterations 100
time step continuity errors : sum local = 4.70393e-10, global = 2.51324e-20, cumulative = 6.61829e-19
ExecutionTime = 13.87 s  ClockTime = 14 s

Time = 0.13375

Courant Number mean: 0.225492 max: 0.963296
smoothSolver:  Solving for Ux, Initial residual = 1.38507e-05, Final residual = 9.22345e-06, No Iterations 3
smoothSolver:  Solving for Uy, Initial residual = 3.37303e-05, Final residual = 8.97368e-06, No Iterations 10
DICPCG:  Solving for p, Initial residual = 0.000256263, Final residual = 1.11061e-05, No Iterations 72
time step continuity errors : sum local = 6.33172e-09, global = 6.08385e-20, cumulative = 7.22668e-19
DICPCG:  Solving for p, Initial residual = 0.000253252, Final residual = 8.97527e-07, No Iterations 98
time step continuity errors : sum local = 5.11171e-10, global = -1.76821e-19, cumulative = 5.45847e-19
ExecutionTime = 13.95 s  ClockTime = 15 s

Time = 0.135

Courant Number mean: 0.225498 max: 0.963297
smoothSolver:  Solving for Ux, Initial residual = 1.41007e-05, Final residual = 9.26113e-06, No Iterations 3
smoothSolver:  Solving for Uy, Initial residual = 3.14526e-05, Final residual = 9.43411e-06, No Iterations 9
DICPCG:  Solving for p, Initial residual = 0.000223595, Final residual = 1.057e-05, No Iterations 73
time step continuity errors : sum local = 6.11589e-09, global = 7.56621e-20, cumulative = 6.21509e-19
DICPCG:  Solving for p, Initial residual = 0.000221939, Final residual = 9.025e-07, No Iterations 96
time step continuity errors : sum local = 5.14657e-10, global = -2.0049e-19, cumulative = 4.21019e-19
ExecutionTime = 14.03 s  ClockTime = 15 s

Time = 0.13625

Courant Number mean: 0.225503 max: 0.963298
smoothSolver:  Solving for Ux, Initial residual = 1.35796e-05, Final residual = 8.97669e-06, No Iterations 3
[...]
DICPCG:  Solving for p, Initial residual = 1.33351e-06, Final residual = 9.14934e-07, No Iterations 1
time step continuity errors : sum local = 5.58422e-10, global = -2.54202e-19, cumulative = -2.03741e-18
ExecutionTime = 25.91 s  ClockTime = 27 s

Time = 0.4675

Courant Number mean: 0.225635 max: 0.963309
smoothSolver:  Solving for Ux, Initial residual = 2.08226e-06, Final residual = 2.08226e-06, No Iterations 0
smoothSolver:  Solving for Uy, Initial residual = 5.54033e-06, Final residual = 5.54033e-06, No Iterations 0
DICPCG:  Solving for p, Initial residual = 1.2494e-06, Final residual = 8.97447e-07, No Iterations 6
time step continuity errors : sum local = 5.46447e-10, global = -2.17962e-20, cumulative = -2.05921e-18
DICPCG:  Solving for p, Initial residual = 1.72792e-06, Final residual = 7.05367e-07, No Iterations 5
time step continuity errors : sum local = 4.36179e-10, global = -2.69191e-19, cumulative = -2.3284e-18
ExecutionTime = 25.93 s  ClockTime = 27 s

Time = 0.46875

Courant Number mean: 0.225635 max: 0.963309
smoothSolver:  Solving for Ux, Initial residual = 2.09402e-06, Final residual = 2.09402e-06, No Iterations 0
smoothSolver:  Solving for Uy, Initial residual = 5.46412e-06, Final residual = 5.46412e-06, No Iterations 0
DICPCG:  Solving for p, Initial residual = 1.40067e-06, Final residual = 9.17934e-07, No Iterations 8
time step continuity errors : sum local = 5.57783e-10, global = 3.41918e-19, cumulative = -1.98648e-18
DICPCG:  Solving for p, Initial residual = 1.57531e-06, Final residual = 9.103e-07, No Iterations 2
time step continuity errors : sum local = 5.55818e-10, global = 1.73347e-19, cumulative = -1.81314e-18
ExecutionTime = 25.96 s  ClockTime = 27 s

Time = 0.47

Courant Number mean: 0.225635 max: 0.963309
smoothSolver:  Solving for Ux, Initial residual = 2.09254e-06, Final residual = 2.09254e-06, No Iterations 0
smoothSolver:  Solving for Uy, Initial residual = 5.42874e-06, Final residual = 5.42874e-06, No Iterations 0
DICPCG:  Solving for p, Initial residual = 1.74626e-06, Final residual = 7.82728e-07, No Iterations 4
time step continuity errors : sum local = 4.78833e-10, global = -1.17317e-20, cumulative = -1.82487e-18
DICPCG:  Solving for p, Initial residual = 1.45415e-06, Final residual = 9.92671e-07, No Iterations 3
time step continuity errors : sum local = 5.98299e-10, global = -1.53312e-19, cumulative = -1.97818e-18
ExecutionTime = 25.98 s  ClockTime = 27 s

Time = 0.47125

Courant Number mean: 0.225635 max: 0.963309
smoothSolver:  Solving for Ux, Initial residual = 2.07885e-06, Final residual = 2.07885e-06, No Iterations 0
smoothSolver:  Solving for Uy, Initial residual = 5.4219e-06, Final residual = 5.4219e-06, No Iterations 0
DICPCG:  Solving for p, Initial residual = 1.78568e-06, Final residual = 6.75557e-07, No Iterations 2
time step continuity errors : sum local = 4.16446e-10, global = 1.142e-19, cumulative = -1.86398e-18
DICPCG:  Solving for p, Initial residual = 1.32037e-06, Final residual = 8.04853e-07, No Iterations 1
time step continuity errors : sum local = 4.90714e-10, global = 6.98525e-20, cumulative = -1.79413e-18
ExecutionTime = 25.99 s  ClockTime = 27 s

Time = 0.4725

Courant Number mean: 0.225635 max: 0.963309
smoothSolver:  Solving for Ux, Initial residual = 2.07069e-06, Final residual = 2.07069e-06, No Iterations 0
smoothSolver:  Solving for Uy, Initial residual = 5.40135e-06, Final residual = 5.40135e-06, No Iterations 0
DICPCG:  Solving for p, Initial residual = 1.24235e-06, Final residual = 8.15491e-07, No Iterations 1
time step continuity errors : sum local = 4.96979e-10, global = -4.30102e-20, cumulative = -1.83714e-18
DICPCG:  Solving for p, Initial residual = 1.11419e-06, Final residual = 8.42514e-07, No Iterations 1
time step continuity errors : sum local = 5.12595e-10, global = -2.23468e-19, cumulative = -2.06061e-18
ExecutionTime = 26.02 s  ClockTime = 27 s

Time = 0.47375

Courant Number mean: 0.225635 max: 0.963309
smoothSolver:  Solving for Ux, Initial residual = 2.0626e-06, Final residual = 2.0626e-06, No Iterations 0
smoothSolver:  Solving for Uy, Initial residual = 5.38152e-06, Final residual = 5.38152e-06, No Iterations 0
DICPCG:  Solving for p, Initial residual = 1.09554e-06, Final residual = 8.8464e-07, No Iterations 1
time step continuity errors : sum local = 5.36653e-10, global = 1.09567e-19, cumulative = -1.95104e-18
DICPCG:  Solving for p, Initial residual = 1.14362e-06, Final residual = 9.15416e-07, No Iterations 1
time step continuity errors : sum local = 5.54171e-10, global = 1.102e-19, cumulative = -1.84084e-18
ExecutionTime = 26.04 s  ClockTime = 27 s

Time = 0.475

Courant Number mean: 0.225635 max: 0.963309
smoothSolver:  Solving for Ux, Initial residual = 2.0537e-06, Final residual = 2.0537e-06, No Iterations 0
smoothSolver:  Solving for Uy, Initial residual = 5.35964e-06, Final residual = 5.35964e-06, No Iterations 0
DICPCG:  Solving for p, Initial residual = 1.18068e-06, Final residual = 9.42243e-07, No Iterations 1
time step continuity errors : sum local = 5.69434e-10, global = 2.08013e-19, cumulative = -1.63283e-18
DICPCG:  Solving for p, Initial residual = 1.20595e-06, Final residual = 9.47232e-07, No Iterations 1
time step continuity errors : sum local = 5.72305e-10, global = -4.76233e-20, cumulative = -1.68045e-18
ExecutionTime = 26.22 s  ClockTime = 27 s

Time = 0.47625

Courant Number mean: 0.225635 max: 0.963309
smoothSolver:  Solving for Ux, Initial residual = 2.04466e-06, Final residual = 2.04466e-06, No Iterations 0
smoothSolver:  Solving for Uy, Initial residual = 5.3382e-06, Final residual = 5.3382e-06, No Iterations 0
DICPCG:  Solving for p, Initial residual = 1.21182e-06, Final residual = 9.57356e-07, No Iterations 1
time step continuity errors : sum local = 5.7815e-10, global = 2.29075e-19, cumulative = -1.45137e-18
DICPCG:  Solving for p, Initial residual = 1.22617e-06, Final residual = 9.55309e-07, No Iterations 1
time step continuity errors : sum local = 5.7711e-10, global = 1.25551e-20, cumulative = -1.43882e-18
ExecutionTime = 26.24 s  ClockTime = 27 s

Time = 0.4775

Courant Number mean: 0.225635 max: 0.963309
smoothSolver:  Solving for Ux, Initial residual = 2.03521e-06, Final residual = 2.03521e-06, No Iterations 0
smoothSolver:  Solving for Uy, Initial residual = 5.31756e-06, Final residual = 5.31756e-06, No Iterations 0
DICPCG:  Solving for p, Initial residual = 1.23247e-06, Final residual = 9.65926e-07, No Iterations 1
time step continuity errors : sum local = 5.83324e-10, global = 5.54941e-19, cumulative = -8.83878e-19
DICPCG:  Solving for p, Initial residual = 1.25369e-06, Final residual = 9.69636e-07, No Iterations 1
time step continuity errors : sum local = 5.85634e-10, global = 2.56623e-19, cumulative = -6.27255e-19
ExecutionTime = 26.25 s  ClockTime = 27 s

Time = 0.47875

Courant Number mean: 0.225636 max: 0.963309
smoothSolver:  Solving for Ux, Initial residual = 2.02539e-06, Final residual = 2.02539e-06, No Iterations 0
smoothSolver:  Solving for Uy, Initial residual = 5.29781e-06, Final residual = 5.29781e-06, No Iterations 0
DICPCG:  Solving for p, Initial residual = 1.26841e-06, Final residual = 9.82365e-07, No Iterations 1
time step continuity errors : sum local = 5.93098e-10, global = 2.8234e-21, cumulative = -6.24432e-19
DICPCG:  Solving for p, Initial residual = 1.28841e-06, Final residual = 9.84401e-07, No Iterations 1
time step continuity errors : sum local = 5.94494e-10, global = 5.16536e-21, cumulative = -6.19267e-19
ExecutionTime = 26.28 s  ClockTime = 27 s

Time = 0.48

Courant Number mean: 0.225636 max: 0.963309
smoothSolver:  Solving for Ux, Initial residual = 2.01547e-06, Final residual = 2.01547e-06, No Iterations 0
smoothSolver:  Solving for Uy, Initial residual = 5.27899e-06, Final residual = 5.27899e-06, No Iterations 0
DICPCG:  Solving for p, Initial residual = 1.29779e-06, Final residual = 9.89178e-07, No Iterations 1
time step continuity errors : sum local = 5.97459e-10, global = 2.28727e-19, cumulative = -3.90539e-19
DICPCG:  Solving for p, Initial residual = 1.30351e-06, Final residual = 9.81179e-07, No Iterations 1
time step continuity errors : sum local = 5.9317e-10, global = 7.10414e-20, cumulative = -3.19498e-19
ExecutionTime = 26.3 s  ClockTime = 27 s

Time = 0.48125

Courant Number mean: 0.225636 max: 0.963309
smoothSolver:  Solving for Ux, Initial residual = 2.00568e-06, Final residual = 2.00568e-06, No Iterations 0
smoothSolver:  Solving for Uy, Initial residual = 5.26093e-06, Final residual = 5.26093e-06, No Iterations 0
DICPCG:  Solving for p, Initial residual = 1.29273e-06, Final residual = 9.7031e-07, No Iterations 1
time step continuity errors : sum local = 5.87251e-10, global = 1.67323e-19, cumulative = -1.52175e-19
DICPCG:  Solving for p, Initial residual = 1.27367e-06, Final residual = 9.45561e-07, No Iterations 1
time step continuity errors : sum local = 5.73445e-10, global = 2.23171e-19, cumulative = 7.09958e-20
ExecutionTime = 26.31 s  ClockTime = 27 s

Time = 0.4825

Courant Number mean: 0.225636 max: 0.963309
smoothSolver:  Solving for Ux, Initial residual = 1.99611e-06, Final residual = 1.99611e-06, No Iterations 0
smoothSolver:  Solving for Uy, Initial residual = 5.24338e-06, Final residual = 5.24338e-06, No Iterations 0
DICPCG:  Solving for p, Initial residual = 1.23739e-06, Final residual = 9.17577e-07, No Iterations 1
time step continuity errors : sum local = 5.57795e-10, global = -7.09485e-20, cumulative = 4.73064e-23
DICPCG:  Solving for p, Initial residual = 1.19763e-06, Final residual = 8.80101e-07, No Iterations 1
time step continuity errors : sum local = 5.3675e-10, global = 1.84803e-19, cumulative = 1.8485e-19
ExecutionTime = 26.34 s  ClockTime = 27 s

Time = 0.48375

Courant Number mean: 0.225636 max: 0.963309
smoothSolver:  Solving for Ux, Initial residual = 1.98678e-06, Final residual = 1.98678e-06, No Iterations 0
smoothSolver:  Solving for Uy, Initial residual = 5.22608e-06, Final residual = 5.22608e-06, No Iterations 0
DICPCG:  Solving for p, Initial residual = 1.14654e-06, Final residual = 8.45651e-07, No Iterations 1
time step continuity errors : sum local = 5.17416e-10, global = -3.28203e-20, cumulative = 1.5203e-19
DICPCG:  Solving for p, Initial residual = 1.10197e-06, Final residual = 8.07735e-07, No Iterations 1
time step continuity errors : sum local = 4.9611e-10, global = -9.49539e-20, cumulative = 5.70762e-20
ExecutionTime = 26.36 s  ClockTime = 27 s

Time = 0.485

Courant Number mean: 0.225636 max: 0.963309
smoothSolver:  Solving for Ux, Initial residual = 1.97771e-06, Final residual = 1.97771e-06, No Iterations 0
smoothSolver:  Solving for Uy, Initial residual = 5.20893e-06, Final residual = 5.20893e-06, No Iterations 0
DICPCG:  Solving for p, Initial residual = 1.05387e-06, Final residual = 7.78646e-07, No Iterations 1
time step continuity errors : sum local = 4.79809e-10, global = 6.23148e-20, cumulative = 1.19391e-19
DICPCG:  Solving for p, Initial residual = 1.01778e-06, Final residual = 7.48652e-07, No Iterations 1
time step continuity errors : sum local = 4.62989e-10, global = -2.38808e-20, cumulative = 9.55102e-20
ExecutionTime = 26.38 s  ClockTime = 27 s

Time = 0.48625

Courant Number mean: 0.225636 max: 0.963309
smoothSolver:  Solving for Ux, Initial residual = 1.96892e-06, Final residual = 1.96892e-06, No Iterations 0
smoothSolver:  Solving for Uy, Initial residual = 5.19188e-06, Final residual = 5.19188e-06, No Iterations 0
DICPCG:  Solving for p, Initial residual = 9.81366e-07, Final residual = 9.81366e-07, No Iterations 0
time step continuity errors : sum local = 5.95528e-10, global = 2.33381e-19, cumulative = 3.28891e-19
DICPCG:  Solving for p, Initial residual = 1.11174e-06, Final residual = 6.8442e-07, No Iterations 1
time step continuity errors : sum local = 4.26676e-10, global = 2.76125e-20, cumulative = 3.56504e-19
ExecutionTime = 26.39 s  ClockTime = 27 s

Time = 0.4875

Courant Number mean: 0.225636 max: 0.963309
smoothSolver:  Solving for Ux, Initial residual = 1.96172e-06, Final residual = 1.96172e-06, No Iterations 0
smoothSolver:  Solving for Uy, Initial residual = 5.17508e-06, Final residual = 5.17508e-06, No Iterations 0
DICPCG:  Solving for p, Initial residual = 1.02909e-06, Final residual = 7.08611e-07, No Iterations 1
time step continuity errors : sum local = 4.40662e-10, global = 1.50206e-19, cumulative = 5.0671e-19
DICPCG:  Solving for p, Initial residual = 9.12317e-07, Final residual = 9.12317e-07, No Iterations 0
time step continuity errors : sum local = 5.56663e-10, global = -2.15689e-19, cumulative = 2.91021e-19
ExecutionTime = 26.41 s  ClockTime = 27 s

Time = 0.48875

Courant Number mean: 0.225636 max: 0.963309
smoothSolver:  Solving for Ux, Initial residual = 1.95428e-06, Final residual = 1.95428e-06, No Iterations 0
smoothSolver:  Solving for Uy, Initial residual = 5.15737e-06, Final residual = 5.15737e-06, No Iterations 0
DICPCG:  Solving for p, Initial residual = 1.05943e-06, Final residual = 7.21025e-07, No Iterations 1
time step continuity errors : sum local = 4.47912e-10, global = 1.29524e-19, cumulative = 4.20545e-19
DICPCG:  Solving for p, Initial residual = 1.05295e-06, Final residual = 7.12475e-07, No Iterations 1
time step continuity errors : sum local = 4.43203e-10, global = -7.8599e-20, cumulative = 3.41946e-19
ExecutionTime = 26.44 s  ClockTime = 27 s

Time = 0.49

Courant Number mean: 0.225636 max: 0.963309
smoothSolver:  Solving for Ux, Initial residual = 1.94575e-06, Final residual = 1.94575e-06, No Iterations 0
smoothSolver:  Solving for Uy, Initial residual = 5.13989e-06, Final residual = 5.13989e-06, No Iterations 0
DICPCG:  Solving for p, Initial residual = 9.31737e-07, Final residual = 9.31737e-07, No Iterations 0
time step continuity errors : sum local = 5.68055e-10, global = 2.15416e-20, cumulative = 3.63488e-19
DICPCG:  Solving for p, Initial residual = 1.05602e-06, Final residual = 7.28526e-07, No Iterations 1
time step continuity errors : sum local = 4.52466e-10, global = -1.24263e-19, cumulative = 2.39225e-19
ExecutionTime = 26.45 s  ClockTime = 27 s

Time = 0.49125

Courant Number mean: 0.225637 max: 0.963309
smoothSolver:  Solving for Ux, Initial residual = 1.93848e-06, Final residual = 1.93848e-06, No Iterations 0
smoothSolver:  Solving for Uy, Initial residual = 5.12299e-06, Final residual = 5.12299e-06, No Iterations 0
DICPCG:  Solving for p, Initial residual = 1.09294e-06, Final residual = 6.93996e-07, No Iterations 1
time step continuity errors : sum local = 4.32915e-10, global = 6.65548e-20, cumulative = 3.0578e-19
DICPCG:  Solving for p, Initial residual = 9.12564e-07, Final residual = 9.12564e-07, No Iterations 0
time step continuity errors : sum local = 5.57369e-10, global = -1.94782e-19, cumulative = 1.10998e-19
ExecutionTime = 26.47 s  ClockTime = 27 s

Time = 0.4925

Courant Number mean: 0.225637 max: 0.963309
smoothSolver:  Solving for Ux, Initial residual = 1.9312e-06, Final residual = 1.9312e-06, No Iterations 0
smoothSolver:  Solving for Uy, Initial residual = 5.10522e-06, Final residual = 5.10522e-06, No Iterations 0
DICPCG:  Solving for p, Initial residual = 1.06735e-06, Final residual = 7.10607e-07, No Iterations 1
time step continuity errors : sum local = 4.42451e-10, global = 1.96795e-19, cumulative = 3.07793e-19
DICPCG:  Solving for p, Initial residual = 1.04246e-06, Final residual = 7.06773e-07, No Iterations 1
time step continuity errors : sum local = 4.40336e-10, global = 1.02414e-19, cumulative = 4.10208e-19
ExecutionTime = 26.49 s  ClockTime = 27 s

Time = 0.49375

Courant Number mean: 0.225637 max: 0.963309
smoothSolver:  Solving for Ux, Initial residual = 1.92254e-06, Final residual = 1.92254e-06, No Iterations 0
smoothSolver:  Solving for Uy, Initial residual = 5.08684e-06, Final residual = 5.08684e-06, No Iterations 0
DICPCG:  Solving for p, Initial residual = 9.26931e-07, Final residual = 9.26931e-07, No Iterations 0
time step continuity errors : sum local = 5.65695e-10, global = -1.65244e-19, cumulative = 2.44963e-19
DICPCG:  Solving for p, Initial residual = 1.05379e-06, Final residual = 7.28789e-07, No Iterations 1
time step continuity errors : sum local = 4.52917e-10, global = -5.87516e-20, cumulative = 1.86212e-19
ExecutionTime = 26.5 s  ClockTime = 27 s

Time = 0.495

Courant Number mean: 0.225637 max: 0.963309
smoothSolver:  Solving for Ux, Initial residual = 1.91519e-06, Final residual = 1.91519e-06, No Iterations 0
smoothSolver:  Solving for Uy, Initial residual = 5.06948e-06, Final residual = 5.06948e-06, No Iterations 0
DICPCG:  Solving for p, Initial residual = 1.10347e-06, Final residual = 7.14453e-07, No Iterations 1
time step continuity errors : sum local = 4.44793e-10, global = 1.82021e-19, cumulative = 3.68232e-19
DICPCG:  Solving for p, Initial residual = 9.49264e-07, Final residual = 9.49264e-07, No Iterations 0
time step continuity errors : sum local = 5.78495e-10, global = -8.24733e-20, cumulative = 2.85759e-19
ExecutionTime = 26.53 s  ClockTime = 27 s

Time = 0.49625

Courant Number mean: 0.225637 max: 0.96331
smoothSolver:  Solving for Ux, Initial residual = 1.9078e-06, Final residual = 1.9078e-06, No Iterations 0
smoothSolver:  Solving for Uy, Initial residual = 5.05132e-06, Final residual = 5.05132e-06, No Iterations 0
DICPCG:  Solving for p, Initial residual = 1.1187e-06, Final residual = 7.77803e-07, No Iterations 1
time step continuity errors : sum local = 4.80889e-10, global = -1.21311e-19, cumulative = 1.64448e-19
DICPCG:  Solving for p, Initial residual = 1.14786e-06, Final residual = 7.86022e-07, No Iterations 1
time step continuity errors : sum local = 4.85593e-10, global = -6.84036e-20, cumulative = 9.60442e-20
ExecutionTime = 26.55 s  ClockTime = 27 s

Time = 0.4975

Courant Number mean: 0.225637 max: 0.96331
smoothSolver:  Solving for Ux, Initial residual = 1.89879e-06, Final residual = 1.89879e-06, No Iterations 0
smoothSolver:  Solving for Uy, Initial residual = 5.03151e-06, Final residual = 5.03151e-06, No Iterations 0
DICPCG:  Solving for p, Initial residual = 1.04682e-06, Final residual = 8.58477e-07, No Iterations 1
time step continuity errors : sum local = 5.26865e-10, global = 2.02419e-19, cumulative = 2.98463e-19
DICPCG:  Solving for p, Initial residual = 1.16769e-06, Final residual = 7.88054e-07, No Iterations 1
time step continuity errors : sum local = 4.86789e-10, global = 1.60021e-19, cumulative = 4.58483e-19
ExecutionTime = 26.56 s  ClockTime = 27 s

Time = 0.49875

Courant Number mean: 0.225637 max: 0.96331
smoothSolver:  Solving for Ux, Initial residual = 1.8898e-06, Final residual = 1.8898e-06, No Iterations 0
smoothSolver:  Solving for Uy, Initial residual = 5.01142e-06, Final residual = 5.01142e-06, No Iterations 0
DICPCG:  Solving for p, Initial residual = 1.08165e-06, Final residual = 8.24206e-07, No Iterations 1
time step continuity errors : sum local = 5.07398e-10, global = -5.43585e-20, cumulative = 4.04125e-19
DICPCG:  Solving for p, Initial residual = 1.10537e-06, Final residual = 7.86913e-07, No Iterations 1
time step continuity errors : sum local = 4.86194e-10, global = -6.23473e-20, cumulative = 3.41778e-19
ExecutionTime = 26.59 s  ClockTime = 27 s

Time = 0.5

Courant Number mean: 0.225637 max: 0.96331
smoothSolver:  Solving for Ux, Initial residual = 1.88104e-06, Final residual = 1.88104e-06, No Iterations 0
smoothSolver:  Solving for Uy, Initial residual = 4.99123e-06, Final residual = 4.99123e-06, No Iterations 0
DICPCG:  Solving for p, Initial residual = 1.06719e-06, Final residual = 7.74494e-07, No Iterations 1
time step continuity errors : sum local = 4.79157e-10, global = -1.1415e-19, cumulative = 2.27628e-19
DICPCG:  Solving for p, Initial residual = 1.03665e-06, Final residual = 7.47918e-07, No Iterations 1
time step continuity errors : sum local = 4.64069e-10, global = 3.67698e-19, cumulative = 5.95326e-19
ExecutionTime = 26.77 s  ClockTime = 28 s

End

